@<TRIPOS>MOLECULE
2v7a_ligand_052
    66    70
SMALL
GAST_HUCK
****
This file was generated by PARSER (from files_GN.cpp)

@<TRIPOS>ATOM
      1 N1        -48.1443  -46.0352    0.2711 N.am        1 MOL      -0.2534
      2 N2        -48.4004  -49.4270    1.4529 N.pl3       1 MOL      -0.2433
      3 C3        -48.2160  -49.5712   -0.7052 C.2         1 MOL       0.1027
      4 N4        -48.3440  -50.2533    0.4549 N.2         1 MOL      -0.2404
      5 N5        -48.1443  -50.2428   -1.8749 N.am        1 MOL      -0.2391
      6 C6        -48.1039  -49.7942   -3.1225 C.2         1 MOL       0.2181
      7 C7        -48.0159  -50.6951   -4.1917 C.ar        1 MOL       0.0412
      8 O8        -48.2161  -48.5971   -3.3623 O.2         1 MOL      -0.3816
      9 C9        -48.5990  -50.3982   -5.4518 C.ar        1 MOL      -0.0531
     10 C10       -48.5137  -51.3050   -6.5249 C.ar        1 MOL      -0.0381
     11 C11       -47.2826  -52.8566   -5.1145 C.ar        1 MOL      -0.0381
     12 C12       -47.3493  -51.9374   -4.0510 C.ar        1 MOL      -0.0531
     13 C13       -48.3031  -48.1688    0.9896 C.2         1 MOL       0.0786
     14 C14       -48.1822  -48.2187   -0.3681 C.2         1 MOL       0.0146
     15 C15       -48.0716  -46.8717   -0.9120 C.3         1 MOL       0.0514
     16 C16       -48.2817  -46.8091    1.4918 C.3         1 MOL       0.0897
     17 N17       -47.7450  -53.4068   -7.3994 N.pl3       1 MOL      -0.2958
     18 C18       -46.8076  -53.1616   -8.4692 C.3         1 MOL       0.0680
     19 C19       -47.5430  -53.1205   -9.8286 C.3         1 MOL      -0.0118
     20 N20       -48.4224  -54.3205   -9.9931 N.4         1 MOL       0.2359
     21 C21       -49.3806  -54.4813   -8.8546 C.3         1 MOL      -0.0118
     22 C22       -48.6195  -54.5486   -7.5054 C.3         1 MOL       0.0680
     23 C23       -49.0969  -54.3437  -11.3225 C.3         1 MOL      -0.0430
     24 C24       -47.8557  -52.5421   -6.3633 C.ar        1 MOL       0.0460
     25 C25       -48.0856  -44.6881    0.2870 C.2         1 MOL       0.2222
     26 O26       -48.1420  -44.1082    1.3713 O.2         1 MOL      -0.3907
     27 C27       -48.4629  -44.4778   -3.2713 C.ar        1 MOL      -0.0555
     28 C28       -49.4000  -44.7297   -4.2879 C.ar        1 MOL      -0.0680
     29 C29       -48.8687  -44.0228   -1.9907 C.ar        1 MOL       0.0044
     30 C31       -50.7718  -44.5212   -4.0427 C.ar        1 MOL      -0.0684
     31 C33       -50.2532  -43.8098   -1.7687 C.ar        1 MOL      -0.0555
     32 C20       -47.8592  -43.8404   -0.8966 C.3         1 MOL       0.1804
     33 C35       -51.1935  -44.0627   -2.7824 C.ar        1 MOL      -0.0680
     34 C36       -48.5852  -41.6096    0.0250 C.3         1 MOL       0.0424
     35 O34       -47.5981  -42.4372   -0.6283 O.3         1 MOL      -0.3473
     36 H1        -48.4932  -49.6760    2.3921 H           1 MOL       0.2389
     37 H2        -48.1463  -51.2082   -1.7794 H           1 MOL       0.2188
     38 H3        -49.1096  -49.5231   -5.5977 H           1 MOL       0.0636
     39 H4        -48.9613  -51.0733   -7.4147 H           1 MOL       0.0530
     40 H5        -46.7823  -53.7395   -4.9877 H           1 MOL       0.0530
     41 H6        -46.8761  -52.1853   -3.1774 H           1 MOL       0.0636
     42 H7        -47.1244  -46.7477   -1.4410 H           1 MOL       0.0576
     43 H8        -48.9151  -46.6965   -1.5772 H           1 MOL       0.0576
     44 H9        -49.2206  -46.5854    2.0066 H           1 MOL       0.0708
     45 H10       -47.4268  -46.6698    2.1630 H           1 MOL       0.0708
     46 H11       -46.0769  -53.9742   -8.4806 H           1 MOL       0.0569
     47 H12       -46.2524  -52.2275   -8.3341 H           1 MOL       0.0569
     48 H13       -46.7911  -53.0961  -10.6229 H           1 MOL       0.0834
     49 H14       -48.1327  -52.1998   -9.8921 H           1 MOL       0.0834
     50 H15       -47.8079  -55.1374   -9.9713 H           1 MOL       0.2032
     51 H16       -49.9543  -55.4041   -8.9739 H           1 MOL       0.0834
     52 H17       -50.0860  -53.6444   -8.8315 H           1 MOL       0.0834
     53 H18       -49.3498  -54.5930   -6.6908 H           1 MOL       0.0569
     54 H19       -48.0246  -55.4633   -7.4673 H           1 MOL       0.0569
     55 H20       -48.3532  -54.3358  -12.1231 H           1 MOL       0.0778
     56 H21       -49.7558  -53.4805  -11.4492 H           1 MOL       0.0778
     57 H22       -49.6884  -55.2549  -11.4345 H           1 MOL       0.0778
     58 H23       -47.4733  -44.6355   -3.4707 H           1 MOL       0.0562
     59 H24       -49.0919  -45.0629   -5.2036 H           1 MOL       0.0600
     60 H25       -51.4542  -44.7101   -4.7781 H           1 MOL       0.0561
     61 H26       -50.5791  -43.4913   -0.8509 H           1 MOL       0.0562
     62 H27       -46.8912  -44.1843   -1.2710 H           1 MOL       0.1000
     63 H28       -52.1953  -43.9293   -2.6032 H           1 MOL       0.0600
     64 H29       -48.1185  -40.6441    0.2404 H           1 MOL       0.0528
     65 H30       -48.9285  -42.0463    0.9679 H           1 MOL       0.0528
     66 H31       -49.4468  -41.4430   -0.6262 H           1 MOL       0.0528
@<TRIPOS>BOND
     1     1    15   1
     2     1    16   1
     3    25     1  am
     4     2     4   1
     5    13     2   1
     6     3     4   2
     7     3     5   1
     8    14     3   1
     9     5     6  am
    10     6     7   1
    11     6     8   2
    12     7     9  ar
    13     7    12  ar
    14     9    10  ar
    15    10    24  ar
    16    12    11  ar
    17    11    24  ar
    18    13    14   2
    19    16    13   1
    20    15    14   1
    21    17    18   1
    22    17    22   1
    23    24    17   1
    24    18    19   1
    25    19    20   1
    26    21    20   1
    27    20    23   1
    28    22    21   1
    29    25    26   2
    30    32    25   1
    31    27    28  ar
    32    29    27  ar
    33    28    30  ar
    34    29    31  ar
    35    29    32   1
    36    30    33  ar
    37    31    33  ar
    38    32    35   1
    39    35    34   1
    40     2    36   1
    41     5    37   1
    42     9    38   1
    43    10    39   1
    44    11    40   1
    45    12    41   1
    46    15    42   1
    47    15    43   1
    48    16    44   1
    49    16    45   1
    50    18    46   1
    51    18    47   1
    52    19    48   1
    53    19    49   1
    54    20    50   1
    55    21    51   1
    56    21    52   1
    57    22    53   1
    58    22    54   1
    59    23    55   1
    60    23    56   1
    61    23    57   1
    62    27    58   1
    63    28    59   1
    64    30    60   1
    65    31    61   1
    66    32    62   1
    67    33    63   1
    68    34    64   1
    69    34    65   1
    70    34    66   1
@<TRIPOS>SUBSTRUCTURE
     1  MOL      3

