@<TRIPOS>MOLECULE
2v7a_ligand_007
    66    70
SMALL
GAST_HUCK
****
This file was generated by PARSER (from files_GN.cpp)

@<TRIPOS>ATOM
      1 N1        -49.0211  -43.4722   -0.1652 N.am        1 MOL      -0.2534
      2 N2        -45.8085  -44.7030    0.8066 N.pl3       1 MOL      -0.2433
      3 C3        -46.8304  -46.3825   -0.1194 C.2         1 MOL       0.1027
      4 N4        -45.6928  -45.9503    0.4620 N.2         1 MOL      -0.2404
      5 N5        -46.9249  -47.6451   -0.5914 N.am        1 MOL      -0.2391
      6 C6        -47.9844  -48.2968   -1.0659 C.2         1 MOL       0.2181
      7 C7        -47.8633  -49.6079   -1.5411 C.ar        1 MOL       0.0412
      8 O8        -49.0885  -47.7783   -1.0311 O.2         1 MOL      -0.3816
      9 C9        -46.6404  -50.0966   -2.0670 C.ar        1 MOL      -0.0531
     10 C10       -46.5202  -51.4136   -2.5381 C.ar        1 MOL      -0.0381
     11 C11       -48.8602  -51.8123   -2.0131 C.ar        1 MOL      -0.0381
     12 C12       -48.9713  -50.5007   -1.5227 C.ar        1 MOL      -0.0531
     13 C13       -47.0319  -44.2706    0.4769 C.2         1 MOL       0.0786
     14 C14       -47.7052  -45.3028   -0.1044 C.2         1 MOL       0.0146
     15 C15       -49.0214  -44.8727   -0.5336 C.3         1 MOL       0.0514
     16 C16       -47.8163  -43.0564    0.5112 C.3         1 MOL       0.0897
     17 N17       -47.5127  -53.5469   -2.9966 N.pl3       1 MOL      -0.2958
     18 C18       -47.0450  -54.6158   -2.1480 C.3         1 MOL       0.0680
     19 C19       -48.1298  -55.7231   -2.0834 C.3         1 MOL      -0.0118
     20 N20       -48.5278  -56.1620   -3.4598 N.4         1 MOL       0.2359
     21 C21       -48.9751  -55.0147   -4.3136 C.3         1 MOL      -0.0118
     22 C22       -47.9253  -53.8779   -4.3378 C.3         1 MOL       0.0680
     23 C23       -49.5206  -57.2750   -3.4433 C.3         1 MOL      -0.0430
     24 C24       -47.6304  -52.2845   -2.5219 C.ar        1 MOL       0.0460
     25 C25       -50.0445  -42.6500   -0.4430 C.2         1 MOL       0.2222
     26 O26       -51.0325  -43.0833   -1.0504 O.2         1 MOL      -0.3907
     27 C27       -52.5340  -40.8217   -0.6669 C.ar        1 MOL      -0.0555
     28 C28       -53.5208  -39.9869   -1.2336 C.ar        1 MOL      -0.0680
     29 C29       -51.1954  -40.3655   -0.5063 C.ar        1 MOL       0.0044
     30 C31       -53.2148  -38.6653   -1.5921 C.ar        1 MOL      -0.0684
     31 C33       -50.9218  -39.0024   -0.8108 C.ar        1 MOL      -0.0555
     32 C20       -50.1088  -41.2550    0.0245 C.3         1 MOL       0.1804
     33 C35       -51.9161  -38.1613   -1.3464 C.ar        1 MOL      -0.0680
     34 C36       -49.7130  -40.1659    2.1870 C.3         1 MOL       0.0424
     35 O34       -50.1991  -41.3095    1.4646 O.3         1 MOL      -0.3473
     36 H1        -45.1013  -44.1749    1.2072 H           1 MOL       0.2389
     37 H2        -46.0997  -48.1443   -0.5533 H           1 MOL       0.2188
     38 H3        -45.8189  -49.4877   -2.1350 H           1 MOL       0.0636
     39 H4        -45.6268  -51.7314   -2.9243 H           1 MOL       0.0530
     40 H5        -49.6698  -52.4375   -1.9687 H           1 MOL       0.0530
     41 H6        -49.8698  -50.2055   -1.1317 H           1 MOL       0.0636
     42 H7        -49.1326  -45.0042   -1.6107 H           1 MOL       0.0576
     43 H8        -49.8059  -45.4103    0.0011 H           1 MOL       0.0576
     44 H9        -48.0156  -42.7606    1.5465 H           1 MOL       0.0708
     45 H10       -47.2948  -42.2670   -0.0424 H           1 MOL       0.0708
     46 H11       -46.8278  -54.2756   -1.1307 H           1 MOL       0.0569
     47 H12       -46.1245  -55.0329   -2.5654 H           1 MOL       0.0569
     48 H13       -49.0016  -55.3435   -1.5386 H           1 MOL       0.0834
     49 H14       -47.7243  -56.5719   -1.5229 H           1 MOL       0.0834
     50 H15       -47.6845  -56.5527   -3.8861 H           1 MOL       0.2032
     51 H16       -49.9248  -54.6120   -3.9424 H           1 MOL       0.0834
     52 H17       -49.1322  -55.3581   -5.3418 H           1 MOL       0.0834
     53 H18       -47.0499  -54.2117   -4.8970 H           1 MOL       0.0569
     54 H19       -48.3441  -53.0176   -4.8720 H           1 MOL       0.0569
     55 H20       -49.7073  -57.6236   -4.4612 H           1 MOL       0.0778
     56 H21       -50.4676  -56.9577   -3.0025 H           1 MOL       0.0778
     57 H22       -49.1311  -58.1185   -2.8734 H           1 MOL       0.0778
     58 H23       -52.7862  -41.7743   -0.4017 H           1 MOL       0.0562
     59 H24       -54.4658  -40.3493   -1.3909 H           1 MOL       0.0600
     60 H25       -53.9319  -38.0560   -1.9982 H           1 MOL       0.0561
     61 H26       -49.9860  -38.5970   -0.6332 H           1 MOL       0.0562
     62 H27       -49.1606  -40.8092   -0.2598 H           1 MOL       0.1000
     63 H28       -51.6926  -37.1823   -1.5691 H           1 MOL       0.0600
     64 H29       -49.9137  -40.3054    3.2503 H           1 MOL       0.0528
     65 H30       -50.2014  -39.2409    1.8641 H           1 MOL       0.0528
     66 H31       -48.6333  -40.0560    2.0590 H           1 MOL       0.0528
@<TRIPOS>BOND
     1     1    15   1
     2     1    16   1
     3    25     1  am
     4     2     4   1
     5    13     2   1
     6     3     4   2
     7     3     5   1
     8    14     3   1
     9     5     6  am
    10     6     7   1
    11     6     8   2
    12     7     9  ar
    13     7    12  ar
    14     9    10  ar
    15    10    24  ar
    16    12    11  ar
    17    11    24  ar
    18    13    14   2
    19    16    13   1
    20    15    14   1
    21    17    18   1
    22    17    22   1
    23    24    17   1
    24    18    19   1
    25    19    20   1
    26    21    20   1
    27    20    23   1
    28    22    21   1
    29    25    26   2
    30    32    25   1
    31    27    28  ar
    32    29    27  ar
    33    28    30  ar
    34    29    31  ar
    35    29    32   1
    36    30    33  ar
    37    31    33  ar
    38    32    35   1
    39    35    34   1
    40     2    36   1
    41     5    37   1
    42     9    38   1
    43    10    39   1
    44    11    40   1
    45    12    41   1
    46    15    42   1
    47    15    43   1
    48    16    44   1
    49    16    45   1
    50    18    46   1
    51    18    47   1
    52    19    48   1
    53    19    49   1
    54    20    50   1
    55    21    51   1
    56    21    52   1
    57    22    53   1
    58    22    54   1
    59    23    55   1
    60    23    56   1
    61    23    57   1
    62    27    58   1
    63    28    59   1
    64    30    60   1
    65    31    61   1
    66    32    62   1
    67    33    63   1
    68    34    64   1
    69    34    65   1
    70    34    66   1
@<TRIPOS>SUBSTRUCTURE
     1  MOL      3

