@<TRIPOS>MOLECULE
2v7a_ligand_045
    66    70
SMALL
GAST_HUCK
****
This file was generated by PARSER (from files_GN.cpp)

@<TRIPOS>ATOM
      1 N1        -41.0252  -47.3652  -10.9771 N.am        1 MOL      -0.2534
      2 N2        -40.9859  -50.9809  -11.1037 N.pl3       1 MOL      -0.2433
      3 C3        -42.3538  -50.4334   -9.4901 C.2         1 MOL       0.1027
      4 N4        -41.7776  -51.4474  -10.1789 N.2         1 MOL      -0.2404
      5 N5        -43.2047  -50.6336   -8.4437 N.am        1 MOL      -0.2391
      6 C6        -43.8530  -49.7438   -7.6821 C.2         1 MOL       0.2181
      7 C7        -44.6155  -50.0880   -6.5472 C.ar        1 MOL       0.0412
      8 O8        -43.7979  -48.5567   -7.9742 O.2         1 MOL      -0.3816
      9 C9        -45.1100  -49.0904   -5.6667 C.ar        1 MOL      -0.0531
     10 C10       -45.8525  -49.4177   -4.5219 C.ar        1 MOL      -0.0381
     11 C11       -45.7042  -51.7559   -5.0984 C.ar        1 MOL      -0.0381
     12 C12       -44.9222  -51.4320   -6.2223 C.ar        1 MOL      -0.0531
     13 C13       -41.0031  -49.6397  -11.0680 C.2         1 MOL       0.0786
     14 C14       -41.8486  -49.2728  -10.0657 C.2         1 MOL       0.0146
     15 C15       -41.9150  -47.8314   -9.9532 C.3         1 MOL       0.0514
     16 C16       -40.4279  -48.4654  -11.7182 C.3         1 MOL       0.0897
     17 N17       -46.9497  -51.0692   -3.1096 N.pl3       1 MOL      -0.2958
     18 C18       -46.8719  -50.3190   -1.8670 C.3         1 MOL       0.0680
     19 C19       -48.2469  -49.6782   -1.5479 C.3         1 MOL      -0.0118
     20 N20       -49.3582  -50.6806   -1.5550 N.4         1 MOL       0.2359
     21 C21       -49.3440  -51.5162   -2.7990 C.3         1 MOL      -0.0118
     22 C22       -47.9506  -52.1215   -3.1324 C.3         1 MOL       0.0680
     23 C23       -49.4635  -51.4765   -0.2987 C.3         1 MOL      -0.0430
     24 C24       -46.1832  -50.7592   -4.2121 C.ar        1 MOL       0.0460
     25 C25       -40.7399  -46.0675  -11.2114 C.2         1 MOL       0.2222
     26 O26       -39.9750  -45.8264  -12.1421 O.2         1 MOL      -0.3907
     27 C27       -42.1478  -44.8524   -8.0603 C.ar        1 MOL      -0.0555
     28 C28       -43.2784  -44.9613   -7.2294 C.ar        1 MOL      -0.0680
     29 C29       -42.2622  -44.9005   -9.4743 C.ar        1 MOL       0.0044
     30 C31       -44.5579  -45.0726   -7.7922 C.ar        1 MOL      -0.0684
     31 C33       -43.5710  -44.9725  -10.0181 C.ar        1 MOL      -0.0555
     32 C20       -41.0650  -44.8745  -10.3873 C.3         1 MOL       0.1804
     33 C35       -44.7036  -45.0726   -9.1881 C.ar        1 MOL      -0.0680
     34 C36       -38.9419  -45.1776   -9.0785 C.3         1 MOL       0.0424
     35 O34       -39.8907  -44.3193   -9.7438 O.3         1 MOL      -0.3473
     36 H1        -40.4589  -51.5217  -11.7172 H           1 MOL       0.2389
     37 H2        -43.3367  -51.5661   -8.2151 H           1 MOL       0.2188
     38 H3        -44.9403  -48.0975   -5.8404 H           1 MOL       0.0636
     39 H4        -46.2031  -48.6451   -3.9523 H           1 MOL       0.0530
     40 H5        -45.8783  -52.7438   -4.9084 H           1 MOL       0.0530
     41 H6        -44.5903  -52.1989   -6.8060 H           1 MOL       0.0636
     42 H7        -42.9401  -47.5223  -10.1529 H           1 MOL       0.0576
     43 H8        -41.5860  -47.5289   -8.9604 H           1 MOL       0.0576
     44 H9        -39.3388  -48.4733  -11.6091 H           1 MOL       0.0708
     45 H10       -40.6954  -48.4396  -12.7792 H           1 MOL       0.0708
     46 H11       -46.1048  -49.5399   -1.8638 H           1 MOL       0.0569
     47 H12       -46.5974  -51.0044   -1.0641 H           1 MOL       0.0569
     48 H13       -48.4645  -48.9174   -2.3060 H           1 MOL       0.0834
     49 H14       -48.1880  -49.1597   -0.5876 H           1 MOL       0.0834
     50 H15       -50.2207  -50.1358   -1.5951 H           1 MOL       0.2032
     51 H16       -49.6481  -50.8757   -3.6342 H           1 MOL       0.0834
     52 H17       -50.0834  -52.3216   -2.7382 H           1 MOL       0.0834
     53 H18       -47.6896  -52.8929   -2.4048 H           1 MOL       0.0569
     54 H19       -48.0509  -52.6088   -4.1044 H           1 MOL       0.0569
     55 H20       -49.5388  -50.8124    0.5646 H           1 MOL       0.0778
     56 H21       -48.6048  -52.1364   -0.1558 H           1 MOL       0.0778
     57 H22       -50.3694  -52.0854   -0.3185 H           1 MOL       0.0778
     58 H23       -41.2381  -44.7515   -7.6112 H           1 MOL       0.0562
     59 H24       -43.1674  -44.9900   -6.2164 H           1 MOL       0.0600
     60 H25       -45.3747  -45.1881   -7.1922 H           1 MOL       0.0561
     61 H26       -43.7030  -44.9889  -11.0299 H           1 MOL       0.0562
     62 H27       -41.3186  -44.0826  -11.1008 H           1 MOL       0.1000
     63 H28       -45.6363  -45.1562   -9.5976 H           1 MOL       0.0600
     64 H29       -38.3139  -44.5590   -8.4339 H           1 MOL       0.0528
     65 H30       -38.3009  -45.6699   -9.8112 H           1 MOL       0.0528
     66 H31       -39.4243  -45.9355   -8.4611 H           1 MOL       0.0528
@<TRIPOS>BOND
     1     1    15   1
     2     1    16   1
     3    25     1  am
     4     2     4   1
     5    13     2   1
     6     3     4   2
     7     3     5   1
     8    14     3   1
     9     5     6  am
    10     6     7   1
    11     6     8   2
    12     7     9  ar
    13     7    12  ar
    14     9    10  ar
    15    10    24  ar
    16    12    11  ar
    17    11    24  ar
    18    13    14   2
    19    16    13   1
    20    15    14   1
    21    17    18   1
    22    17    22   1
    23    24    17   1
    24    18    19   1
    25    19    20   1
    26    21    20   1
    27    20    23   1
    28    22    21   1
    29    25    26   2
    30    32    25   1
    31    27    28  ar
    32    29    27  ar
    33    28    30  ar
    34    29    31  ar
    35    29    32   1
    36    30    33  ar
    37    31    33  ar
    38    32    35   1
    39    35    34   1
    40     2    36   1
    41     5    37   1
    42     9    38   1
    43    10    39   1
    44    11    40   1
    45    12    41   1
    46    15    42   1
    47    15    43   1
    48    16    44   1
    49    16    45   1
    50    18    46   1
    51    18    47   1
    52    19    48   1
    53    19    49   1
    54    20    50   1
    55    21    51   1
    56    21    52   1
    57    22    53   1
    58    22    54   1
    59    23    55   1
    60    23    56   1
    61    23    57   1
    62    27    58   1
    63    28    59   1
    64    30    60   1
    65    31    61   1
    66    32    62   1
    67    33    63   1
    68    34    64   1
    69    34    65   1
    70    34    66   1
@<TRIPOS>SUBSTRUCTURE
     1  MOL      3

