@<TRIPOS>MOLECULE
2v7a_ligand_084
    66    70
SMALL
GAST_HUCK
****
This file was generated by PARSER (from files_GN.cpp)

@<TRIPOS>ATOM
      1 N1        -47.1964  -44.5554    1.3205 N.am        1 MOL      -0.2534
      2 N2        -47.7470  -47.5824    3.1971 N.pl3       1 MOL      -0.2433
      3 C3        -48.1888  -48.0871    1.1295 C.2         1 MOL       0.1027
      4 N4        -48.1325  -48.5354    2.3997 N.2         1 MOL      -0.2404
      5 N5        -48.5430  -48.8977    0.0986 N.am        1 MOL      -0.2391
      6 C6        -48.5892  -48.6292   -1.2047 C.2         1 MOL       0.2181
      7 C7        -48.9850  -49.5558   -2.1765 C.ar        1 MOL       0.0412
      8 O8        -48.2310  -47.5225   -1.5948 O.2         1 MOL      -0.3816
      9 C9        -49.1441  -49.1604   -3.5395 C.ar        1 MOL      -0.0531
     10 C10       -49.4825  -50.0659   -4.5355 C.ar        1 MOL      -0.0381
     11 C11       -49.6192  -51.8282   -2.8879 C.ar        1 MOL      -0.0381
     12 C12       -49.2555  -50.9232   -1.8870 C.ar        1 MOL      -0.0531
     13 C13       -47.5467  -46.4602    2.4921 C.2         1 MOL       0.0786
     14 C14       -47.8238  -46.7419    1.1867 C.2         1 MOL       0.0146
     15 C15       -47.6268  -45.5516    0.3690 C.3         1 MOL       0.0514
     16 C16       -47.1345  -45.0795    2.6729 C.3         1 MOL       0.0897
     17 N17       -50.0631  -52.3087   -5.2410 N.pl3       1 MOL      -0.2958
     18 C18       -49.5058  -52.2295   -6.5830 C.3         1 MOL       0.0680
     19 C19       -50.6319  -52.0005   -7.6174 C.3         1 MOL      -0.0118
     20 N20       -51.6757  -53.0627   -7.4791 N.4         1 MOL       0.2359
     21 C21       -52.2105  -53.1375   -6.0836 C.3         1 MOL      -0.0118
     22 C22       -51.0621  -53.3486   -5.0594 C.3         1 MOL       0.0680
     23 C23       -52.7474  -52.9365   -8.5035 C.3         1 MOL      -0.0430
     24 C24       -49.7314  -51.4363   -4.2545 C.ar        1 MOL       0.0460
     25 C25       -46.8347  -43.3002    0.9974 C.2         1 MOL       0.2222
     26 O26       -46.4568  -42.5758    1.9187 O.2         1 MOL      -0.3907
     27 C27       -44.9929  -40.9388   -0.7328 C.ar        1 MOL      -0.0555
     28 C28       -43.6711  -40.6007   -1.0815 C.ar        1 MOL      -0.0680
     29 C29       -45.4233  -42.2903   -0.7361 C.ar        1 MOL       0.0044
     30 C31       -42.7605  -41.6044   -1.4381 C.ar        1 MOL      -0.0684
     31 C33       -44.4859  -43.2921   -1.0940 C.ar        1 MOL      -0.0555
     32 C20       -46.8217  -42.6602   -0.3346 C.3         1 MOL       0.1804
     33 C35       -43.1681  -42.9514   -1.4500 C.ar        1 MOL      -0.0680
     34 C36       -47.1623  -44.1417   -2.3878 C.3         1 MOL       0.0424
     35 O34       -47.6551  -43.2590   -1.3547 O.3         1 MOL      -0.3473
     36 H1        -47.6219  -47.6712    4.1598 H           1 MOL       0.2389
     37 H2        -48.7772  -49.7988    0.3576 H           1 MOL       0.2188
     38 H3        -49.0061  -48.1829   -3.8193 H           1 MOL       0.0636
     39 H4        -49.6013  -49.7077   -5.4883 H           1 MOL       0.0530
     40 H5        -49.7641  -52.8080   -2.6284 H           1 MOL       0.0530
     41 H6        -49.1688  -51.2780   -0.9305 H           1 MOL       0.0636
     42 H7        -46.8588  -45.7453   -0.3838 H           1 MOL       0.0576
     43 H8        -48.5730  -45.2712   -0.1126 H           1 MOL       0.0576
     44 H9        -47.8277  -44.5607    3.3378 H           1 MOL       0.0708
     45 H10       -46.1189  -45.0335    3.0648 H           1 MOL       0.0708
     46 H11       -48.9997  -53.1736   -6.8056 H           1 MOL       0.0569
     47 H12       -48.7461  -51.4508   -6.6993 H           1 MOL       0.0569
     48 H13       -50.1899  -52.0291   -8.6179 H           1 MOL       0.0834
     49 H14       -51.0686  -51.0072   -7.4672 H           1 MOL       0.0834
     50 H15       -51.2062  -53.9531   -7.6557 H           1 MOL       0.2032
     51 H16       -52.9102  -53.9734   -5.9916 H           1 MOL       0.0834
     52 H17       -52.7485  -52.2166   -5.8337 H           1 MOL       0.0834
     53 H18       -51.5113  -53.3470   -4.0629 H           1 MOL       0.0569
     54 H19       -50.6026  -54.3284   -5.2159 H           1 MOL       0.0569
     55 H20       -52.3185  -52.9816   -9.5060 H           1 MOL       0.0778
     56 H21       -53.2860  -51.9920   -8.3949 H           1 MOL       0.0778
     57 H22       -53.4593  -53.7583   -8.4130 H           1 MOL       0.0778
     58 H23       -45.6363  -40.1920   -0.4715 H           1 MOL       0.0562
     59 H24       -43.3758  -39.6235   -1.0617 H           1 MOL       0.0600
     60 H25       -41.8047  -41.3567   -1.6784 H           1 MOL       0.0561
     61 H26       -44.7523  -44.2813   -1.0729 H           1 MOL       0.0562
     62 H27       -47.3851  -41.7307   -0.1765 H           1 MOL       0.1000
     63 H28       -42.4959  -43.6827   -1.6830 H           1 MOL       0.0600
     64 H29       -47.9880  -44.3578   -3.0800 H           1 MOL       0.0528
     65 H30       -46.8172  -45.0794   -1.9511 H           1 MOL       0.0528
     66 H31       -46.3357  -43.6982   -2.9547 H           1 MOL       0.0528
@<TRIPOS>BOND
     1     1    15   1
     2     1    16   1
     3    25     1  am
     4     2     4   1
     5    13     2   1
     6     3     4   2
     7     3     5   1
     8    14     3   1
     9     5     6  am
    10     6     7   1
    11     6     8   2
    12     7     9  ar
    13     7    12  ar
    14     9    10  ar
    15    10    24  ar
    16    12    11  ar
    17    11    24  ar
    18    13    14   2
    19    16    13   1
    20    15    14   1
    21    17    18   1
    22    17    22   1
    23    24    17   1
    24    18    19   1
    25    19    20   1
    26    21    20   1
    27    20    23   1
    28    22    21   1
    29    25    26   2
    30    32    25   1
    31    27    28  ar
    32    29    27  ar
    33    28    30  ar
    34    29    31  ar
    35    29    32   1
    36    30    33  ar
    37    31    33  ar
    38    32    35   1
    39    35    34   1
    40     2    36   1
    41     5    37   1
    42     9    38   1
    43    10    39   1
    44    11    40   1
    45    12    41   1
    46    15    42   1
    47    15    43   1
    48    16    44   1
    49    16    45   1
    50    18    46   1
    51    18    47   1
    52    19    48   1
    53    19    49   1
    54    20    50   1
    55    21    51   1
    56    21    52   1
    57    22    53   1
    58    22    54   1
    59    23    55   1
    60    23    56   1
    61    23    57   1
    62    27    58   1
    63    28    59   1
    64    30    60   1
    65    31    61   1
    66    32    62   1
    67    33    63   1
    68    34    64   1
    69    34    65   1
    70    34    66   1
@<TRIPOS>SUBSTRUCTURE
     1  MOL      3

