@<TRIPOS>MOLECULE
2v7a_ligand_041
    66    70
SMALL
GAST_HUCK
****
This file was generated by PARSER (from files_GN.cpp)

@<TRIPOS>ATOM
      1 N1        -44.6328  -45.9152   -5.9451 N.am        1 MOL      -0.2534
      2 N2        -42.6480  -48.7847   -6.8010 N.pl3       1 MOL      -0.2433
      3 C3        -44.2442  -49.5403   -5.5485 C.2         1 MOL       0.1027
      4 N4        -43.1492  -49.8542   -6.2727 N.2         1 MOL      -0.2404
      5 N5        -44.9246  -50.5180   -4.9088 N.am        1 MOL      -0.2391
      6 C6        -45.9586  -50.4382   -4.0815 C.2         1 MOL       0.2181
      7 C7        -46.5614  -51.6020   -3.5891 C.ar        1 MOL       0.0412
      8 O8        -46.3644  -49.3510   -3.6919 O.2         1 MOL      -0.3816
      9 C9        -46.6074  -52.7825   -4.3670 C.ar        1 MOL      -0.0531
     10 C10       -47.2021  -53.9581   -3.8736 C.ar        1 MOL      -0.0381
     11 C11       -47.7206  -52.8339   -1.8045 C.ar        1 MOL      -0.0381
     12 C12       -47.1505  -51.6434   -2.3059 C.ar        1 MOL      -0.0531
     13 C13       -43.3893  -47.7222   -6.4606 C.2         1 MOL       0.0786
     14 C14       -44.4121  -48.1589   -5.6708 C.2         1 MOL       0.0146
     15 C15       -45.2645  -47.0389   -5.2978 C.3         1 MOL       0.0514
     16 C16       -43.4416  -46.2886   -6.6717 C.3         1 MOL       0.0897
     17 N17       -48.2887  -55.2044   -2.0805 N.pl3       1 MOL      -0.2958
     18 C18       -49.0395  -56.1374   -2.9093 C.3         1 MOL       0.0680
     19 C19       -50.4134  -56.4513   -2.2620 C.3         1 MOL      -0.0118
     20 N20       -50.2541  -56.8922   -0.8432 N.4         1 MOL       0.2359
     21 C21       -49.4788  -55.9018   -0.0358 C.3         1 MOL      -0.0118
     22 C22       -48.1095  -55.6317   -0.7028 C.3         1 MOL       0.0680
     23 C23       -51.5492  -57.2549   -0.2039 C.3         1 MOL      -0.0430
     24 C24       -47.7582  -54.0262   -2.5713 C.ar        1 MOL       0.0460
     25 C25       -45.0851  -44.6653   -5.9491 C.2         1 MOL       0.2222
     26 O26       -44.3535  -43.8265   -6.4981 O.2         1 MOL      -0.3907
     27 C27       -47.4953  -45.4395   -3.5279 C.ar        1 MOL      -0.0555
     28 C28       -47.6172  -45.6703   -2.1446 C.ar        1 MOL      -0.0680
     29 C29       -46.5589  -44.4943   -4.0189 C.ar        1 MOL       0.0044
     30 C31       -46.8279  -44.9409   -1.2370 C.ar        1 MOL      -0.0684
     31 C33       -45.7913  -43.7481   -3.0819 C.ar        1 MOL      -0.0555
     32 C20       -46.4069  -44.2241   -5.4697 C.3         1 MOL       0.1804
     33 C35       -45.9328  -43.9673   -1.7043 C.ar        1 MOL      -0.0680
     34 C36       -46.4748  -41.8356   -6.4683 C.3         1 MOL       0.0424
     35 O34       -46.8566  -42.8360   -5.5236 O.3         1 MOL      -0.3473
     36 H1        -41.8567  -48.7638   -7.3572 H           1 MOL       0.2389
     37 H2        -44.5877  -51.4186   -5.0738 H           1 MOL       0.2188
     38 H3        -46.2191  -52.8021   -5.3113 H           1 MOL       0.0636
     39 H4        -47.1655  -54.7856   -4.4679 H           1 MOL       0.0530
     40 H5        -48.1565  -52.7972   -0.8782 H           1 MOL       0.0530
     41 H6        -47.1578  -50.8138   -1.7050 H           1 MOL       0.0636
     42 H7        -46.2790  -47.2049   -5.6644 H           1 MOL       0.0576
     43 H8        -45.2653  -46.9289   -4.2124 H           1 MOL       0.0576
     44 H9        -42.5512  -45.8048   -6.2689 H           1 MOL       0.0708
     45 H10       -43.5477  -46.0610   -7.7342 H           1 MOL       0.0708
     46 H11       -48.4672  -57.0623   -3.0167 H           1 MOL       0.0569
     47 H12       -49.2458  -55.7577   -3.9127 H           1 MOL       0.0569
     48 H13       -50.8939  -57.2424   -2.8434 H           1 MOL       0.0834
     49 H14       -51.0451  -55.5592   -2.3149 H           1 MOL       0.0834
     50 H15       -49.6974  -57.7496   -0.8707 H           1 MOL       0.2032
     51 H16       -49.3013  -56.2933    0.9688 H           1 MOL       0.0834
     52 H17       -50.0270  -54.9604    0.0558 H           1 MOL       0.0834
     53 H18       -47.5415  -54.9326   -0.0863 H           1 MOL       0.0569
     54 H19       -47.5341  -56.5625   -0.7065 H           1 MOL       0.0569
     55 H20       -52.0524  -58.0332   -0.7799 H           1 MOL       0.0778
     56 H21       -52.2123  -56.3892   -0.1300 H           1 MOL       0.0778
     57 H22       -51.3764  -57.6495    0.7999 H           1 MOL       0.0778
     58 H23       -48.0840  -45.9676   -4.1775 H           1 MOL       0.0562
     59 H24       -48.2802  -46.3690   -1.8087 H           1 MOL       0.0600
     60 H25       -46.9210  -45.1099   -0.2347 H           1 MOL       0.0561
     61 H26       -45.1464  -43.0246   -3.4088 H           1 MOL       0.0562
     62 H27       -47.1476  -44.7921   -6.0479 H           1 MOL       0.1000
     63 H28       -45.3755  -43.4198   -1.0468 H           1 MOL       0.0600
     64 H29       -47.2109  -41.0152   -6.3923 H           1 MOL       0.0528
     65 H30       -46.4732  -42.1874   -7.4947 H           1 MOL       0.0528
     66 H31       -45.5065  -41.4336   -6.1844 H           1 MOL       0.0528
@<TRIPOS>BOND
     1     1    15   1
     2     1    16   1
     3    25     1  am
     4     2     4   1
     5    13     2   1
     6     3     4   2
     7     3     5   1
     8    14     3   1
     9     5     6  am
    10     6     7   1
    11     6     8   2
    12     7     9  ar
    13     7    12  ar
    14     9    10  ar
    15    10    24  ar
    16    12    11  ar
    17    11    24  ar
    18    13    14   2
    19    16    13   1
    20    15    14   1
    21    17    18   1
    22    17    22   1
    23    24    17   1
    24    18    19   1
    25    19    20   1
    26    21    20   1
    27    20    23   1
    28    22    21   1
    29    25    26   2
    30    32    25   1
    31    27    28  ar
    32    29    27  ar
    33    28    30  ar
    34    29    31  ar
    35    29    32   1
    36    30    33  ar
    37    31    33  ar
    38    32    35   1
    39    35    34   1
    40     2    36   1
    41     5    37   1
    42     9    38   1
    43    10    39   1
    44    11    40   1
    45    12    41   1
    46    15    42   1
    47    15    43   1
    48    16    44   1
    49    16    45   1
    50    18    46   1
    51    18    47   1
    52    19    48   1
    53    19    49   1
    54    20    50   1
    55    21    51   1
    56    21    52   1
    57    22    53   1
    58    22    54   1
    59    23    55   1
    60    23    56   1
    61    23    57   1
    62    27    58   1
    63    28    59   1
    64    30    60   1
    65    31    61   1
    66    32    62   1
    67    33    63   1
    68    34    64   1
    69    34    65   1
    70    34    66   1
@<TRIPOS>SUBSTRUCTURE
     1  MOL      3

