@<TRIPOS>MOLECULE
2v7a_ligand_042
    66    70
SMALL
GAST_HUCK
****
This file was generated by PARSER (from files_GN.cpp)

@<TRIPOS>ATOM
      1 N1        -48.5181  -46.3000   -1.1491 N.am        1 MOL      -0.2534
      2 N2        -46.8574  -49.4599   -1.6401 N.pl3       1 MOL      -0.2433
      3 C3        -46.2967  -48.2280   -3.3381 C.2         1 MOL       0.1027
      4 N4        -46.1806  -49.4390   -2.7500 N.2         1 MOL      -0.2404
      5 N5        -45.6824  -47.9582   -4.5164 N.am        1 MOL      -0.2391
      6 C6        -45.5792  -46.8040   -5.1722 C.2         1 MOL       0.2181
      7 C7        -44.9519  -46.7462   -6.4198 C.ar        1 MOL       0.0412
      8 O8        -45.9682  -45.7582   -4.6728 O.2         1 MOL      -0.3816
      9 C9        -45.0571  -47.8089   -7.3438 C.ar        1 MOL      -0.0531
     10 C10       -44.4379  -47.7409   -8.6041 C.ar        1 MOL      -0.0381
     11 C11       -43.5741  -45.5554   -8.0695 C.ar        1 MOL      -0.0381
     12 C12       -44.2061  -45.6094   -6.8145 C.ar        1 MOL      -0.0531
     13 C13       -47.4515  -48.2747   -1.4615 C.2         1 MOL       0.0786
     14 C14       -47.1286  -47.4745   -2.5150 C.2         1 MOL       0.0146
     15 C15       -47.8060  -46.1944   -2.4035 C.3         1 MOL       0.0514
     16 C16       -48.3348  -47.6008   -0.5260 C.3         1 MOL       0.0897
     17 N17       -43.0486  -46.5624  -10.2452 N.pl3       1 MOL      -0.2958
     18 C18       -42.7530  -45.3170  -10.9399 C.3         1 MOL       0.0680
     19 C19       -41.2328  -45.1875  -11.1990 C.3         1 MOL      -0.0118
     20 N20       -40.7554  -46.3711  -11.9742 N.4         1 MOL       0.2359
     21 C21       -41.0947  -47.6565  -11.2885 C.3         1 MOL      -0.0118
     22 C22       -42.6119  -47.7484  -10.9687 C.3         1 MOL       0.0680
     23 C23       -39.3165  -46.2742  -12.3471 C.3         1 MOL      -0.0430
     24 C24       -43.6661  -46.6163   -9.0093 C.ar        1 MOL       0.0460
     25 C25       -49.2492  -45.3275   -0.5781 C.2         1 MOL       0.2222
     26 O26       -49.6893  -45.5304    0.5515 O.2         1 MOL      -0.3907
     27 C27       -49.4386  -41.7947    0.0729 C.ar        1 MOL      -0.0555
     28 C28       -48.6934  -40.7183    0.5884 C.ar        1 MOL      -0.0680
     29 C29       -48.8022  -42.8979   -0.5533 C.ar        1 MOL       0.0044
     30 C31       -47.2904  -40.7248    0.4911 C.ar        1 MOL      -0.0684
     31 C33       -47.3871  -42.8763   -0.6449 C.ar        1 MOL      -0.0555
     32 C20       -49.6108  -44.0150   -1.1368 C.3         1 MOL       0.1804
     33 C35       -46.6401  -41.8077   -0.1262 C.ar        1 MOL      -0.0680
     34 C36       -50.6337  -44.3801   -3.3428 C.3         1 MOL       0.0424
     35 O34       -49.5144  -43.8953   -2.5741 O.3         1 MOL      -0.3473
     36 H1        -46.9328  -50.2221   -1.0442 H           1 MOL       0.2389
     37 H2        -45.2334  -48.7152   -4.9241 H           1 MOL       0.2188
     38 H3        -45.6224  -48.6360   -7.1235 H           1 MOL       0.0636
     39 H4        -44.6110  -48.5143   -9.2463 H           1 MOL       0.0530
     40 H5        -42.9949  -44.7370   -8.2572 H           1 MOL       0.0530
     41 H6        -44.0909  -44.8163   -6.1768 H           1 MOL       0.0636
     42 H7        -47.0793  -45.3941   -2.3882 H           1 MOL       0.0576
     43 H8        -48.4795  -46.0849   -3.2543 H           1 MOL       0.0576
     44 H9        -49.2810  -48.1421   -0.4446 H           1 MOL       0.0708
     45 H10       -47.8540  -47.5243    0.4545 H           1 MOL       0.0708
     46 H11       -43.1121  -44.4242  -10.4318 H           1 MOL       0.0569
     47 H12       -43.2654  -45.3257  -11.9047 H           1 MOL       0.0569
     48 H13       -40.7042  -45.1079  -10.2430 H           1 MOL       0.0834
     49 H14       -41.0533  -44.2702  -11.7663 H           1 MOL       0.0834
     50 H15       -41.2795  -46.3693  -12.8513 H           1 MOL       0.2032
     51 H16       -40.5295  -47.7476  -10.3570 H           1 MOL       0.0834
     52 H17       -40.8263  -48.5000  -11.9334 H           1 MOL       0.0834
     53 H18       -43.1769  -47.8329  -11.9012 H           1 MOL       0.0569
     54 H19       -42.7488  -48.6795  -10.4189 H           1 MOL       0.0569
     55 H20       -39.0227  -47.1302  -12.9609 H           1 MOL       0.0778
     56 H21       -38.6763  -46.2439  -11.4615 H           1 MOL       0.0778
     57 H22       -39.1415  -45.3754  -12.9386 H           1 MOL       0.0778
     58 H23       -50.4595  -41.7565    0.1491 H           1 MOL       0.0562
     59 H24       -49.1707  -39.9289    1.0331 H           1 MOL       0.0600
     60 H25       -46.7482  -39.9444    0.8683 H           1 MOL       0.0561
     61 H26       -46.8892  -43.6363   -1.0872 H           1 MOL       0.0562
     62 H27       -50.6617  -43.8443   -0.8698 H           1 MOL       0.1000
     63 H28       -45.6190  -41.8119   -0.1962 H           1 MOL       0.0600
     64 H29       -50.3691  -44.3515   -4.4007 H           1 MOL       0.0528
     65 H30       -51.5044  -43.7394   -3.1907 H           1 MOL       0.0528
     66 H31       -50.8884  -45.4065   -3.0777 H           1 MOL       0.0528
@<TRIPOS>BOND
     1     1    15   1
     2     1    16   1
     3    25     1  am
     4     2     4   1
     5    13     2   1
     6     3     4   2
     7     3     5   1
     8    14     3   1
     9     5     6  am
    10     6     7   1
    11     6     8   2
    12     7     9  ar
    13     7    12  ar
    14     9    10  ar
    15    10    24  ar
    16    12    11  ar
    17    11    24  ar
    18    13    14   2
    19    16    13   1
    20    15    14   1
    21    17    18   1
    22    17    22   1
    23    24    17   1
    24    18    19   1
    25    19    20   1
    26    21    20   1
    27    20    23   1
    28    22    21   1
    29    25    26   2
    30    32    25   1
    31    27    28  ar
    32    29    27  ar
    33    28    30  ar
    34    29    31  ar
    35    29    32   1
    36    30    33  ar
    37    31    33  ar
    38    32    35   1
    39    35    34   1
    40     2    36   1
    41     5    37   1
    42     9    38   1
    43    10    39   1
    44    11    40   1
    45    12    41   1
    46    15    42   1
    47    15    43   1
    48    16    44   1
    49    16    45   1
    50    18    46   1
    51    18    47   1
    52    19    48   1
    53    19    49   1
    54    20    50   1
    55    21    51   1
    56    21    52   1
    57    22    53   1
    58    22    54   1
    59    23    55   1
    60    23    56   1
    61    23    57   1
    62    27    58   1
    63    28    59   1
    64    30    60   1
    65    31    61   1
    66    32    62   1
    67    33    63   1
    68    34    64   1
    69    34    65   1
    70    34    66   1
@<TRIPOS>SUBSTRUCTURE
     1  MOL      3

