@<TRIPOS>MOLECULE
2v7a_ligand_022
    66    70
SMALL
GAST_HUCK
****
This file was generated by PARSER (from files_GN.cpp)

@<TRIPOS>ATOM
      1 N1        -42.7131  -46.7789  -10.1259 N.am        1 MOL      -0.2534
      2 N2        -44.3676  -49.3429  -12.0222 N.pl3       1 MOL      -0.2433
      3 C3        -45.0771  -49.5830   -9.9834 C.2         1 MOL       0.1027
      4 N4        -45.1464  -50.0445  -11.2515 N.2         1 MOL      -0.2404
      5 N5        -45.7470  -50.2199   -8.9948 N.am        1 MOL      -0.2391
      6 C6        -45.7663  -50.0105   -7.6797 C.2         1 MOL       0.2181
      7 C7        -46.4105  -50.8943   -6.7974 C.ar        1 MOL       0.0412
      8 O8        -45.1966  -49.0213   -7.2235 O.2         1 MOL      -0.3816
      9 C9        -46.6481  -50.5553   -5.4368 C.ar        1 MOL      -0.0531
     10 C10       -47.2677  -51.4499   -4.5513 C.ar        1 MOL      -0.0381
     11 C11       -47.4600  -53.0722   -6.3259 C.ar        1 MOL      -0.0381
     12 C12       -46.8185  -52.1954   -7.2017 C.ar        1 MOL      -0.0531
     13 C13       -43.7560  -48.3994  -11.2981 C.2         1 MOL       0.0786
     14 C14       -44.1957  -48.5028  -10.0171 C.2         1 MOL       0.0146
     15 C15       -43.5573  -47.4905   -9.1908 C.3         1 MOL       0.0514
     16 C16       -42.7709  -47.3415  -11.4621 C.3         1 MOL       0.0897
     17 N17       -48.3240  -53.6137   -4.1152 N.pl3       1 MOL      -0.2958
     18 C18       -49.3496  -54.5494   -4.5509 C.3         1 MOL       0.0680
     19 C19       -48.8652  -56.0047   -4.3358 C.3         1 MOL      -0.0118
     20 N20       -48.3953  -56.2512   -2.9366 N.4         1 MOL       0.2359
     21 C21       -47.4336  -55.2010   -2.4721 C.3         1 MOL      -0.0118
     22 C22       -47.9300  -53.7508   -2.7250 C.3         1 MOL       0.0680
     23 C23       -49.5003  -56.5183   -1.9714 C.3         1 MOL      -0.0430
     24 C24       -47.7134  -52.7333   -4.9686 C.ar        1 MOL       0.0460
     25 C25       -41.9541  -45.7073   -9.8283 C.2         1 MOL       0.2222
     26 O26       -41.3166  -45.1844  -10.7336 O.2         1 MOL      -0.3907
     27 C27       -40.5791  -46.8080   -7.3303 C.ar        1 MOL      -0.0555
     28 C28       -40.4076  -47.7214   -6.2737 C.ar        1 MOL      -0.0680
     29 C29       -41.6733  -45.9071   -7.3421 C.ar        1 MOL       0.0044
     30 C31       -41.3340  -47.7599   -5.2141 C.ar        1 MOL      -0.0684
     31 C33       -42.5773  -45.9367   -6.2511 C.ar        1 MOL      -0.0555
     32 C20       -41.9375  -45.0252   -8.5241 C.3         1 MOL       0.1804
     33 C35       -42.4177  -46.8641   -5.2043 C.ar        1 MOL      -0.0680
     34 C36       -39.7403  -43.7509   -8.6457 C.3         1 MOL       0.0424
     35 O34       -41.1672  -43.8009   -8.4195 O.3         1 MOL      -0.3473
     36 H1        -44.2361  -49.5002  -12.9719 H           1 MOL       0.2389
     37 H2        -46.2726  -50.9704   -9.3023 H           1 MOL       0.2188
     38 H3        -46.3726  -49.6372   -5.0771 H           1 MOL       0.0636
     39 H4        -47.4391  -51.1344   -3.5928 H           1 MOL       0.0530
     40 H5        -47.6935  -54.0078   -6.6706 H           1 MOL       0.0530
     41 H6        -46.6325  -52.5340   -8.1492 H           1 MOL       0.0636
     42 H7        -44.3128  -46.8390   -8.7518 H           1 MOL       0.0576
     43 H8        -42.9764  -47.9951   -8.4219 H           1 MOL       0.0576
     44 H9        -41.8058  -47.7577  -11.7680 H           1 MOL       0.0708
     45 H10       -43.1155  -46.6144  -12.2013 H           1 MOL       0.0708
     46 H11       -49.6460  -54.4263   -5.5965 H           1 MOL       0.0569
     47 H12       -50.2558  -54.3775   -3.9658 H           1 MOL       0.0569
     48 H13       -48.0330  -56.1941   -5.0161 H           1 MOL       0.0834
     49 H14       -49.6612  -56.7027   -4.6154 H           1 MOL       0.0834
     50 H15       -47.8544  -57.1174   -2.9815 H           1 MOL       0.2032
     51 H16       -46.4986  -55.3429   -3.0188 H           1 MOL       0.0834
     52 H17       -47.2010  -55.3264   -1.4105 H           1 MOL       0.0834
     53 H18       -48.7788  -53.5208   -2.0772 H           1 MOL       0.0569
     54 H19       -47.1122  -53.0878   -2.4361 H           1 MOL       0.0569
     55 H20       -50.1200  -57.3438   -2.3289 H           1 MOL       0.0778
     56 H21       -50.1370  -55.6448   -1.8251 H           1 MOL       0.0778
     57 H22       -49.0880  -56.8149   -1.0051 H           1 MOL       0.0778
     58 H23       -39.9330  -46.8230   -8.1241 H           1 MOL       0.0562
     59 H24       -39.6248  -48.3871   -6.2871 H           1 MOL       0.0600
     60 H25       -41.2347  -48.4543   -4.4719 H           1 MOL       0.0561
     61 H26       -43.3861  -45.3108   -6.2222 H           1 MOL       0.0562
     62 H27       -42.9560  -44.6447   -8.4339 H           1 MOL       0.1000
     63 H28       -43.1016  -46.9148   -4.4460 H           1 MOL       0.0600
     64 H29       -39.3808  -42.7742   -8.2811 H           1 MOL       0.0528
     65 H30       -39.5005  -43.8132   -9.7123 H           1 MOL       0.0528
     66 H31       -39.2040  -44.5346   -8.1042 H           1 MOL       0.0528
@<TRIPOS>BOND
     1     1    15   1
     2     1    16   1
     3    25     1  am
     4     2     4   1
     5    13     2   1
     6     3     4   2
     7     3     5   1
     8    14     3   1
     9     5     6  am
    10     6     7   1
    11     6     8   2
    12     7     9  ar
    13     7    12  ar
    14     9    10  ar
    15    10    24  ar
    16    12    11  ar
    17    11    24  ar
    18    13    14   2
    19    16    13   1
    20    15    14   1
    21    17    18   1
    22    17    22   1
    23    24    17   1
    24    18    19   1
    25    19    20   1
    26    21    20   1
    27    20    23   1
    28    22    21   1
    29    25    26   2
    30    32    25   1
    31    27    28  ar
    32    29    27  ar
    33    28    30  ar
    34    29    31  ar
    35    29    32   1
    36    30    33  ar
    37    31    33  ar
    38    32    35   1
    39    35    34   1
    40     2    36   1
    41     5    37   1
    42     9    38   1
    43    10    39   1
    44    11    40   1
    45    12    41   1
    46    15    42   1
    47    15    43   1
    48    16    44   1
    49    16    45   1
    50    18    46   1
    51    18    47   1
    52    19    48   1
    53    19    49   1
    54    20    50   1
    55    21    51   1
    56    21    52   1
    57    22    53   1
    58    22    54   1
    59    23    55   1
    60    23    56   1
    61    23    57   1
    62    27    58   1
    63    28    59   1
    64    30    60   1
    65    31    61   1
    66    32    62   1
    67    33    63   1
    68    34    64   1
    69    34    65   1
    70    34    66   1
@<TRIPOS>SUBSTRUCTURE
     1  MOL      3

