@<TRIPOS>MOLECULE
2v7a_ligand_077
    66    70
SMALL
GAST_HUCK
****
This file was generated by PARSER (from files_GN.cpp)

@<TRIPOS>ATOM
      1 N1        -49.5910  -47.6012   -2.3142 N.am        1 MOL      -0.2534
      2 N2        -49.2848  -50.6874   -4.1122 N.pl3       1 MOL      -0.2433
      3 C3        -47.7085  -49.4124   -4.8903 C.2         1 MOL       0.1027
      4 N4        -48.3180  -50.6117   -4.9757 N.2         1 MOL      -0.2404
      5 N5        -46.6973  -49.1070   -5.7411 N.am        1 MOL      -0.2391
      6 C6        -45.9407  -48.0169   -5.8245 C.2         1 MOL       0.2181
      7 C7        -45.0243  -47.8450   -6.8829 C.ar        1 MOL       0.0412
      8 O8        -46.0257  -47.1510   -4.9634 O.2         1 MOL      -0.3816
      9 C9        -45.1729  -48.5190   -8.1151 C.ar        1 MOL      -0.0531
     10 C10       -44.2627  -48.3276   -9.1790 C.ar        1 MOL      -0.0381
     11 C11       -43.0169  -46.7737   -7.8386 C.ar        1 MOL      -0.0381
     12 C12       -43.9225  -46.9618   -6.7724 C.ar        1 MOL      -0.0531
     13 C13       -49.3556  -49.5383   -3.4348 C.2         1 MOL       0.0786
     14 C14       -48.3713  -48.7080   -3.8827 C.2         1 MOL       0.0146
     15 C15       -48.4395  -47.4315   -3.1825 C.3         1 MOL       0.0514
     16 C16       -50.1827  -48.9170   -2.4193 C.3         1 MOL       0.0897
     17 N17       -42.2837  -47.2342  -10.1416 N.pl3       1 MOL      -0.2958
     18 C18       -42.6887  -47.3227  -11.5406 C.3         1 MOL       0.0680
     19 C19       -42.4768  -45.9463  -12.2244 C.3         1 MOL      -0.0118
     20 N20       -41.0727  -45.4696  -12.0665 N.4         1 MOL       0.2359
     21 C21       -40.6455  -45.4505  -10.6333 C.3         1 MOL      -0.0118
     22 C22       -40.8925  -46.8321   -9.9769 C.3         1 MOL       0.0680
     23 C23       -40.8369  -44.1710  -12.7554 C.3         1 MOL      -0.0430
     24 C24       -43.1577  -47.4437   -9.0831 C.ar        1 MOL       0.0460
     25 C25       -50.1274  -46.6541   -1.5267 C.2         1 MOL       0.2222
     26 O26       -51.1378  -46.9196   -0.8812 O.2         1 MOL      -0.3907
     27 C27       -48.3868  -45.5289    0.7420 C.ar        1 MOL      -0.0555
     28 C28       -47.2048  -45.5096    1.5075 C.ar        1 MOL      -0.0680
     29 C29       -48.3782  -45.2149   -0.6401 C.ar        1 MOL       0.0044
     30 C31       -45.9828  -45.1725    0.8962 C.ar        1 MOL      -0.0684
     31 C33       -47.1321  -44.8635   -1.2294 C.ar        1 MOL      -0.0555
     32 C20       -49.6518  -45.2663   -1.4308 C.3         1 MOL       0.1804
     33 C35       -45.9482  -44.8525   -0.4705 C.ar        1 MOL      -0.0680
     34 C36       -50.6337  -44.7804   -3.6551 C.3         1 MOL       0.0424
     35 O34       -49.5465  -44.6170   -2.7202 O.3         1 MOL      -0.3473
     36 H1        -49.8783  -51.4462   -3.9961 H           1 MOL       0.2389
     37 H2        -46.5109  -49.8025   -6.3900 H           1 MOL       0.2188
     38 H3        -45.9562  -49.1551   -8.2791 H           1 MOL       0.0636
     39 H4        -44.4137  -48.8907  -10.0159 H           1 MOL       0.0530
     40 H5        -42.2803  -46.0828   -7.6980 H           1 MOL       0.0530
     41 H6        -43.7623  -46.4342   -5.9108 H           1 MOL       0.0636
     42 H7        -47.5247  -47.2663   -2.6101 H           1 MOL       0.0576
     43 H8        -48.5814  -46.6357   -3.9156 H           1 MOL       0.0576
     44 H9        -51.2175  -48.8688   -2.7690 H           1 MOL       0.0708
     45 H10       -50.1181  -49.4690   -1.4786 H           1 MOL       0.0708
     46 H11       -43.7374  -47.5800  -11.6951 H           1 MOL       0.0569
     47 H12       -42.0906  -48.0822  -12.0549 H           1 MOL       0.0569
     48 H13       -43.1716  -45.2234  -11.7855 H           1 MOL       0.0834
     49 H14       -42.7134  -46.0544  -13.2864 H           1 MOL       0.0834
     50 H15       -40.4797  -46.1564  -12.5373 H           1 MOL       0.2032
     51 H16       -41.1938  -44.6842  -10.0759 H           1 MOL       0.0834
     52 H17       -39.5781  -45.2166  -10.5729 H           1 MOL       0.0834
     53 H18       -40.2525  -47.5681  -10.4755 H           1 MOL       0.0569
     54 H19       -40.5562  -46.8101   -8.9377 H           1 MOL       0.0569
     55 H20       -39.7696  -43.9679  -12.7788 H           1 MOL       0.0778
     56 H21       -41.3384  -43.3507  -12.2418 H           1 MOL       0.0778
     57 H22       -41.1885  -44.2010  -13.7875 H           1 MOL       0.0778
     58 H23       -49.2617  -45.7867    1.2074 H           1 MOL       0.0562
     59 H24       -47.2313  -45.7413    2.5007 H           1 MOL       0.0600
     60 H25       -45.1243  -45.1582    1.4499 H           1 MOL       0.0561
     61 H26       -47.0743  -44.6376   -2.2227 H           1 MOL       0.0562
     62 H27       -50.3739  -44.6624   -0.8660 H           1 MOL       0.1000
     63 H28       -45.0565  -44.6158   -0.9151 H           1 MOL       0.0600
     64 H29       -50.4436  -44.1352   -4.5094 H           1 MOL       0.0528
     65 H30       -51.5928  -44.4968   -3.2189 H           1 MOL       0.0528
     66 H31       -50.6879  -45.8102   -4.0146 H           1 MOL       0.0528
@<TRIPOS>BOND
     1     1    15   1
     2     1    16   1
     3    25     1  am
     4     2     4   1
     5    13     2   1
     6     3     4   2
     7     3     5   1
     8    14     3   1
     9     5     6  am
    10     6     7   1
    11     6     8   2
    12     7     9  ar
    13     7    12  ar
    14     9    10  ar
    15    10    24  ar
    16    12    11  ar
    17    11    24  ar
    18    13    14   2
    19    16    13   1
    20    15    14   1
    21    17    18   1
    22    17    22   1
    23    24    17   1
    24    18    19   1
    25    19    20   1
    26    21    20   1
    27    20    23   1
    28    22    21   1
    29    25    26   2
    30    32    25   1
    31    27    28  ar
    32    29    27  ar
    33    28    30  ar
    34    29    31  ar
    35    29    32   1
    36    30    33  ar
    37    31    33  ar
    38    32    35   1
    39    35    34   1
    40     2    36   1
    41     5    37   1
    42     9    38   1
    43    10    39   1
    44    11    40   1
    45    12    41   1
    46    15    42   1
    47    15    43   1
    48    16    44   1
    49    16    45   1
    50    18    46   1
    51    18    47   1
    52    19    48   1
    53    19    49   1
    54    20    50   1
    55    21    51   1
    56    21    52   1
    57    22    53   1
    58    22    54   1
    59    23    55   1
    60    23    56   1
    61    23    57   1
    62    27    58   1
    63    28    59   1
    64    30    60   1
    65    31    61   1
    66    32    62   1
    67    33    63   1
    68    34    64   1
    69    34    65   1
    70    34    66   1
@<TRIPOS>SUBSTRUCTURE
     1  MOL      3

