@<TRIPOS>MOLECULE
2v7a_ligand_021
    66    70
SMALL
GAST_HUCK
****
This file was generated by PARSER (from files_GN.cpp)

@<TRIPOS>ATOM
      1 N1        -39.8333  -45.8371  -10.6057 N.am        1 MOL      -0.2534
      2 N2        -39.2601  -48.1175  -13.3214 N.pl3       1 MOL      -0.2433
      3 C3        -41.2108  -48.6220  -12.5200 C.2         1 MOL       0.1027
      4 N4        -40.2647  -48.9417  -13.4371 N.2         1 MOL      -0.2404
      5 N5        -42.3638  -49.2494  -12.1807 N.am        1 MOL      -0.2391
      6 C6        -42.8494  -50.3957  -12.6606 C.2         1 MOL       0.2181
      7 C7        -43.9621  -51.0485  -12.0841 C.ar        1 MOL       0.0412
      8 O8        -42.2779  -50.9234  -13.6089 O.2         1 MOL      -0.3816
      9 C9        -44.4926  -52.2374  -12.6487 C.ar        1 MOL      -0.0531
     10 C10       -45.5619  -52.9329  -12.0495 C.ar        1 MOL      -0.0381
     11 C11       -45.6506  -51.2774  -10.3027 C.ar        1 MOL      -0.0381
     12 C12       -44.5741  -50.5884  -10.8927 C.ar        1 MOL      -0.0531
     13 C13       -39.4956  -47.2593  -12.3284 C.2         1 MOL       0.0786
     14 C14       -40.7345  -47.5163  -11.8283 C.2         1 MOL       0.0146
     15 C15       -41.0493  -46.6202  -10.7256 C.3         1 MOL       0.0514
     16 C16       -38.8325  -46.2037  -11.5901 C.3         1 MOL       0.0897
     17 N17       -47.2176  -53.1581  -10.2677 N.pl3       1 MOL      -0.2958
     18 C18       -48.2933  -52.4844   -9.5547 C.3         1 MOL       0.0680
     19 C19       -48.3988  -53.0232   -8.1033 C.3         1 MOL      -0.0118
     20 N20       -48.5381  -54.5125   -8.0543 N.4         1 MOL       0.2359
     21 C21       -47.4653  -55.1789   -8.8581 C.3         1 MOL      -0.0118
     22 C22       -47.3322  -54.6090  -10.2996 C.3         1 MOL       0.0680
     23 C23       -49.9162  -55.0055   -8.3516 C.3         1 MOL      -0.0430
     24 C24       -46.1704  -52.4757  -10.8546 C.ar        1 MOL       0.0460
     25 C25       -39.6192  -44.8753   -9.6921 C.2         1 MOL       0.2222
     26 O26       -38.4744  -44.4308   -9.6024 O.2         1 MOL      -0.3907
     27 C27       -40.8020  -46.0116   -7.0695 C.ar        1 MOL      -0.0555
     28 C28       -41.5461  -46.8785   -6.2423 C.ar        1 MOL      -0.0680
     29 C29       -41.4385  -45.1621   -8.0062 C.ar        1 MOL       0.0044
     30 C31       -42.9498  -46.9083   -6.3465 C.ar        1 MOL      -0.0684
     31 C33       -42.8561  -45.2014   -8.0873 C.ar        1 MOL      -0.0555
     32 C20       -40.6394  -44.2273   -8.8544 C.3         1 MOL       0.1804
     33 C35       -43.6045  -46.0757   -7.2713 C.ar        1 MOL      -0.0680
     34 C36       -39.5907  -42.0123   -8.3929 C.3         1 MOL       0.0424
     35 O34       -40.0932  -43.2737   -7.9022 O.3         1 MOL      -0.3473
     36 H1        -38.4410  -48.1235  -13.8410 H           1 MOL       0.2389
     37 H2        -42.8528  -48.8349  -11.4577 H           1 MOL       0.2188
     38 H3        -44.1083  -52.6275  -13.5093 H           1 MOL       0.0636
     39 H4        -45.9116  -53.7608  -12.5342 H           1 MOL       0.0530
     40 H5        -45.9983  -50.9168   -9.4129 H           1 MOL       0.0530
     41 H6        -44.2308  -49.7573  -10.4074 H           1 MOL       0.0636
     42 H7        -41.9151  -46.0026  -10.9757 H           1 MOL       0.0576
     43 H8        -41.2452  -47.2125   -9.8264 H           1 MOL       0.0576
     44 H9        -37.9183  -46.5905  -11.1289 H           1 MOL       0.0708
     45 H10       -38.6026  -45.3741  -12.2586 H           1 MOL       0.0708
     46 H11       -49.2330  -52.6841  -10.0798 H           1 MOL       0.0569
     47 H12       -48.2044  -51.4009   -9.5272 H           1 MOL       0.0569
     48 H13       -49.2382  -52.5386   -7.5946 H           1 MOL       0.0834
     49 H14       -47.4897  -52.7387   -7.5587 H           1 MOL       0.0834
     50 H15       -48.3682  -54.7750   -7.0798 H           1 MOL       0.2032
     51 H16       -47.6281  -56.2608   -8.9024 H           1 MOL       0.0834
     52 H17       -46.5105  -55.0266   -8.3382 H           1 MOL       0.0834
     53 H18       -46.4721  -55.1074  -10.7539 H           1 MOL       0.0569
     54 H19       -48.2134  -54.8881  -10.8910 H           1 MOL       0.0569
     55 H20       -49.9749  -56.0787   -8.1678 H           1 MOL       0.0778
     56 H21       -50.2076  -54.8133   -9.3849 H           1 MOL       0.0778
     57 H22       -50.6401  -54.5220   -7.6922 H           1 MOL       0.0778
     58 H23       -39.7861  -46.0033   -6.9840 H           1 MOL       0.0562
     59 H24       -41.0671  -47.4965   -5.5829 H           1 MOL       0.0600
     60 H25       -43.4922  -47.5419   -5.7518 H           1 MOL       0.0561
     61 H26       -43.3589  -44.5956   -8.7365 H           1 MOL       0.0562
     62 H27       -41.3151  -43.6968   -9.5355 H           1 MOL       0.1000
     63 H28       -44.6271  -46.1057   -7.3473 H           1 MOL       0.0600
     64 H29       -39.3790  -41.3770   -7.5301 H           1 MOL       0.0528
     65 H30       -40.3304  -41.5078   -9.0226 H           1 MOL       0.0528
     66 H31       -38.6632  -42.1356   -8.9518 H           1 MOL       0.0528
@<TRIPOS>BOND
     1     1    15   1
     2     1    16   1
     3    25     1  am
     4     2     4   1
     5    13     2   1
     6     3     4   2
     7     3     5   1
     8    14     3   1
     9     5     6  am
    10     6     7   1
    11     6     8   2
    12     7     9  ar
    13     7    12  ar
    14     9    10  ar
    15    10    24  ar
    16    12    11  ar
    17    11    24  ar
    18    13    14   2
    19    16    13   1
    20    15    14   1
    21    17    18   1
    22    17    22   1
    23    24    17   1
    24    18    19   1
    25    19    20   1
    26    21    20   1
    27    20    23   1
    28    22    21   1
    29    25    26   2
    30    32    25   1
    31    27    28  ar
    32    29    27  ar
    33    28    30  ar
    34    29    31  ar
    35    29    32   1
    36    30    33  ar
    37    31    33  ar
    38    32    35   1
    39    35    34   1
    40     2    36   1
    41     5    37   1
    42     9    38   1
    43    10    39   1
    44    11    40   1
    45    12    41   1
    46    15    42   1
    47    15    43   1
    48    16    44   1
    49    16    45   1
    50    18    46   1
    51    18    47   1
    52    19    48   1
    53    19    49   1
    54    20    50   1
    55    21    51   1
    56    21    52   1
    57    22    53   1
    58    22    54   1
    59    23    55   1
    60    23    56   1
    61    23    57   1
    62    27    58   1
    63    28    59   1
    64    30    60   1
    65    31    61   1
    66    32    62   1
    67    33    63   1
    68    34    64   1
    69    34    65   1
    70    34    66   1
@<TRIPOS>SUBSTRUCTURE
     1  MOL      3

