@<TRIPOS>MOLECULE
2v7a_ligand_065
    66    70
SMALL
GAST_HUCK
****
This file was generated by PARSER (from files_GN.cpp)

@<TRIPOS>ATOM
      1 N1        -48.3002  -43.3060   -1.2875 N.am        1 MOL      -0.2534
      2 N2        -51.8862  -43.5275   -1.1537 N.pl3       1 MOL      -0.2433
      3 C3        -51.2735  -44.9888   -2.6383 C.2         1 MOL       0.1027
      4 N4        -52.3105  -44.4324   -1.9809 N.2         1 MOL      -0.2404
      5 N5        -51.5108  -45.9860   -3.5267 N.am        1 MOL      -0.2391
      6 C6        -50.6655  -46.7080   -4.2547 C.2         1 MOL       0.2181
      7 C7        -51.1107  -47.7661   -5.0718 C.ar        1 MOL       0.0412
      8 O8        -49.4645  -46.4778   -4.1812 O.2         1 MOL      -0.3816
      9 C9        -50.2157  -48.7625   -5.5397 C.ar        1 MOL      -0.0531
     10 C10       -50.6557  -49.8475   -6.3254 C.ar        1 MOL      -0.0381
     11 C11       -52.9014  -48.9918   -6.2555 C.ar        1 MOL      -0.0381
     12 C12       -52.4675  -47.9093   -5.4635 C.ar        1 MOL      -0.0531
     13 C13       -50.5531  -43.4577   -1.2313 C.2         1 MOL       0.0786
     14 C14       -50.1237  -44.3506   -2.1677 C.2         1 MOL       0.0146
     15 C15       -48.6698  -44.2992   -2.2773 C.3         1 MOL       0.0514
     16 C16       -49.4520  -42.7423   -0.6085 C.3         1 MOL       0.0897
     17 N17       -52.4472  -51.0778   -7.4701 N.pl3       1 MOL      -0.2958
     18 C18       -53.8118  -51.5792   -7.4513 C.3         1 MOL       0.0680
     19 C19       -54.4492  -51.4122   -8.8558 C.3         1 MOL      -0.0118
     20 N20       -53.6315  -52.0545   -9.9389 N.4         1 MOL       0.2359
     21 C21       -52.1877  -51.6698   -9.8500 C.3         1 MOL      -0.0118
     22 C22       -51.5936  -51.7931   -8.4147 C.3         1 MOL       0.0680
     23 C23       -53.8539  -53.5237  -10.0713 C.3         1 MOL      -0.0430
     24 C24       -52.0157  -50.0060   -6.7087 C.ar        1 MOL       0.0460
     25 C25       -47.0398  -42.9400   -0.9830 C.2         1 MOL       0.2222
     26 O26       -46.8640  -42.1514   -0.0578 O.2         1 MOL      -0.3907
     27 C27       -43.2943  -43.5426   -1.3279 C.ar        1 MOL      -0.0555
     28 C28       -42.0550  -42.9087   -1.1078 C.ar        1 MOL      -0.0680
     29 C29       -44.5056  -42.8090   -1.4025 C.ar        1 MOL       0.0044
     30 C31       -41.9986  -41.5137   -0.9706 C.ar        1 MOL      -0.0684
     31 C33       -44.4014  -41.3945   -1.3431 C.ar        1 MOL      -0.0555
     32 C20       -45.8351  -43.4829   -1.6516 C.3         1 MOL       0.1804
     33 C35       -43.1682  -40.7511   -1.1142 C.ar        1 MOL      -0.0680
     34 C36       -45.8700  -45.5169   -0.1983 C.3         1 MOL       0.0424
     35 O34       -45.7820  -44.9253   -1.5120 O.3         1 MOL      -0.3473
     36 H1        -52.4457  -43.0004   -0.5648 H           1 MOL       0.2389
     37 H2        -52.4469  -46.2239   -3.6086 H           1 MOL       0.2188
     38 H3        -49.2241  -48.7308   -5.2834 H           1 MOL       0.0636
     39 H4        -49.9643  -50.5630   -6.5594 H           1 MOL       0.0530
     40 H5        -53.8850  -48.9949   -6.5436 H           1 MOL       0.0530
     41 H6        -53.1650  -47.2080   -5.1959 H           1 MOL       0.0636
     42 H7        -48.2536  -45.2771   -2.0365 H           1 MOL       0.0576
     43 H8        -48.3758  -43.9892   -3.2799 H           1 MOL       0.0576
     44 H9        -49.5511  -41.6666   -0.7887 H           1 MOL       0.0708
     45 H10       -49.4368  -42.9478    0.4678 H           1 MOL       0.0708
     46 H11       -54.4530  -51.1051   -6.7073 H           1 MOL       0.0569
     47 H12       -53.7927  -52.6439   -7.1953 H           1 MOL       0.0569
     48 H13       -54.5297  -50.3442   -9.0764 H           1 MOL       0.0834
     49 H14       -55.4694  -51.8111   -8.8495 H           1 MOL       0.0834
     50 H15       -53.9751  -51.6560  -10.8188 H           1 MOL       0.2032
     51 H16       -52.1005  -50.6283  -10.1699 H           1 MOL       0.0834
     52 H17       -51.5860  -52.2614  -10.5459 H           1 MOL       0.0834
     53 H18       -51.5387  -52.8502   -8.1318 H           1 MOL       0.0569
     54 H19       -50.5681  -51.4217   -8.4630 H           1 MOL       0.0569
     55 H20       -54.9149  -53.7320  -10.2296 H           1 MOL       0.0778
     56 H21       -53.5175  -54.0697   -9.1879 H           1 MOL       0.0778
     57 H22       -53.3164  -53.9050  -10.9426 H           1 MOL       0.0778
     58 H23       -43.2906  -44.5584   -1.4348 H           1 MOL       0.0562
     59 H24       -41.1995  -43.4674   -1.0385 H           1 MOL       0.0600
     60 H25       -41.1030  -41.0516   -0.7791 H           1 MOL       0.0561
     61 H26       -45.2304  -40.8108   -1.4543 H           1 MOL       0.0562
     62 H27       -45.9894  -43.3266   -2.7196 H           1 MOL       0.1000
     63 H28       -43.1185  -39.7299   -1.0532 H           1 MOL       0.0600
     64 H29       -45.5424  -46.5576   -0.2718 H           1 MOL       0.0528
     65 H30       -46.9003  -45.5043    0.1602 H           1 MOL       0.0528
     66 H31       -45.2371  -45.0010    0.5274 H           1 MOL       0.0528
@<TRIPOS>BOND
     1     1    15   1
     2     1    16   1
     3    25     1  am
     4     2     4   1
     5    13     2   1
     6     3     4   2
     7     3     5   1
     8    14     3   1
     9     5     6  am
    10     6     7   1
    11     6     8   2
    12     7     9  ar
    13     7    12  ar
    14     9    10  ar
    15    10    24  ar
    16    12    11  ar
    17    11    24  ar
    18    13    14   2
    19    16    13   1
    20    15    14   1
    21    17    18   1
    22    17    22   1
    23    24    17   1
    24    18    19   1
    25    19    20   1
    26    21    20   1
    27    20    23   1
    28    22    21   1
    29    25    26   2
    30    32    25   1
    31    27    28  ar
    32    29    27  ar
    33    28    30  ar
    34    29    31  ar
    35    29    32   1
    36    30    33  ar
    37    31    33  ar
    38    32    35   1
    39    35    34   1
    40     2    36   1
    41     5    37   1
    42     9    38   1
    43    10    39   1
    44    11    40   1
    45    12    41   1
    46    15    42   1
    47    15    43   1
    48    16    44   1
    49    16    45   1
    50    18    46   1
    51    18    47   1
    52    19    48   1
    53    19    49   1
    54    20    50   1
    55    21    51   1
    56    21    52   1
    57    22    53   1
    58    22    54   1
    59    23    55   1
    60    23    56   1
    61    23    57   1
    62    27    58   1
    63    28    59   1
    64    30    60   1
    65    31    61   1
    66    32    62   1
    67    33    63   1
    68    34    64   1
    69    34    65   1
    70    34    66   1
@<TRIPOS>SUBSTRUCTURE
     1  MOL      3

