@<TRIPOS>MOLECULE
2v7a_ligand_055
    66    70
SMALL
GAST_HUCK
****
This file was generated by PARSER (from files_GN.cpp)

@<TRIPOS>ATOM
      1 N1        -45.1110  -45.8263   -5.8235 N.am        1 MOL      -0.2534
      2 N2        -48.2079  -45.0343   -4.1816 N.pl3       1 MOL      -0.2433
      3 C3        -47.7802  -47.0918   -3.6334 C.2         1 MOL       0.1027
      4 N4        -48.6275  -46.0479   -3.4905 N.2         1 MOL      -0.2404
      5 N5        -48.0230  -48.2328   -2.9485 N.am        1 MOL      -0.2391
      6 C6        -47.3438  -49.3791   -2.8785 C.2         1 MOL       0.2181
      7 C7        -47.7424  -50.4273   -2.0228 C.ar        1 MOL       0.0412
      8 O8        -46.3384  -49.5069   -3.5646 O.2         1 MOL      -0.3816
      9 C9        -46.9455  -51.5925   -1.8680 C.ar        1 MOL      -0.0531
     10 C10       -47.3031  -52.6225   -0.9792 C.ar        1 MOL      -0.0381
     11 C11       -49.3113  -51.4248   -0.3982 C.ar        1 MOL      -0.0381
     12 C12       -48.9373  -50.3781   -1.2589 C.ar        1 MOL      -0.0531
     13 C13       -47.0716  -45.3698   -4.7957 C.2         1 MOL       0.0786
     14 C14       -46.7681  -46.6632   -4.4925 C.2         1 MOL       0.0146
     15 C15       -45.5177  -47.0454   -5.1439 C.3         1 MOL       0.0514
     16 C16       -46.0714  -44.7523   -5.6427 C.3         1 MOL       0.0897
     17 N17       -48.8547  -53.5825    0.6433 N.pl3       1 MOL      -0.2958
     18 C18       -50.2271  -54.0293    0.8106 C.3         1 MOL       0.0680
     19 C19       -50.6763  -53.8680    2.2829 C.3         1 MOL      -0.0118
     20 N20       -49.7206  -54.5662    3.1955 N.4         1 MOL       0.2359
     21 C21       -48.3091  -54.1182    2.9815 C.3         1 MOL      -0.0118
     22 C22       -47.8877  -54.2580    1.4935 C.3         1 MOL       0.0680
     23 C23       -50.1406  -54.4842    4.6236 C.3         1 MOL      -0.0430
     24 C24       -48.5004  -52.5728   -0.2227 C.ar        1 MOL       0.0460
     25 C25       -43.9680  -45.6381   -6.5081 C.2         1 MOL       0.2222
     26 O26       -43.7215  -44.5052   -6.9028 O.2         1 MOL      -0.3907
     27 C27       -42.1551  -48.2062   -8.4975 C.ar        1 MOL      -0.0555
     28 C28       -41.7189  -48.4843   -9.8080 C.ar        1 MOL      -0.0680
     29 C29       -42.4110  -46.8788   -8.0651 C.ar        1 MOL       0.0044
     30 C31       -41.5452  -47.4352  -10.7250 C.ar        1 MOL      -0.0684
     31 C33       -42.1763  -45.8318   -8.9983 C.ar        1 MOL      -0.0555
     32 C20       -42.8829  -46.6213   -6.6587 C.3         1 MOL       0.1804
     33 C35       -41.7820  -46.1103  -10.3230 C.ar        1 MOL      -0.0680
     34 C36       -40.8743  -47.0868   -5.2846 C.3         1 MOL       0.0424
     35 O34       -41.8130  -46.1326   -5.8063 O.3         1 MOL      -0.3473
     36 H1        -48.6381  -44.1675   -4.2284 H           1 MOL       0.2389
     37 H2        -48.8192  -48.1846   -2.4014 H           1 MOL       0.2188
     38 H3        -46.0805  -51.7075   -2.4016 H           1 MOL       0.0636
     39 H4        -46.6967  -53.4453   -0.9306 H           1 MOL       0.0530
     40 H5        -50.1609  -51.3038    0.1573 H           1 MOL       0.0530
     41 H6        -49.5620  -49.5717   -1.3034 H           1 MOL       0.0636
     42 H7        -44.7902  -47.3482   -4.3877 H           1 MOL       0.0576
     43 H8        -45.6940  -47.8593   -5.8507 H           1 MOL       0.0576
     44 H9        -46.5146  -44.4409   -6.5920 H           1 MOL       0.0708
     45 H10       -45.6284  -43.8974   -5.1232 H           1 MOL       0.0708
     46 H11       -50.2803  -55.0881    0.5412 H           1 MOL       0.0569
     47 H12       -50.9385  -53.5195    0.1573 H           1 MOL       0.0569
     48 H13       -51.6743  -54.3029    2.3852 H           1 MOL       0.0834
     49 H14       -50.7396  -52.8033    2.5273 H           1 MOL       0.0834
     50 H15       -49.7535  -55.5563    2.9438 H           1 MOL       0.2032
     51 H16       -47.6309  -54.7239    3.5887 H           1 MOL       0.0834
     52 H17       -48.1954  -53.0727    3.2867 H           1 MOL       0.0834
     53 H18       -46.8783  -53.8476    1.4073 H           1 MOL       0.0569
     54 H19       -47.8375  -55.3166    1.2228 H           1 MOL       0.0569
     55 H20       -51.1386  -54.9106    4.7504 H           1 MOL       0.0778
     56 H21       -50.1565  -53.4489    4.9747 H           1 MOL       0.0778
     57 H22       -49.4581  -55.0565    5.2553 H           1 MOL       0.0778
     58 H23       -42.2724  -48.9906   -7.8550 H           1 MOL       0.0562
     59 H24       -41.5419  -49.4475  -10.0970 H           1 MOL       0.0600
     60 H25       -41.2384  -47.6346  -11.6824 H           1 MOL       0.0561
     61 H26       -42.3001  -44.8539   -8.7291 H           1 MOL       0.0562
     62 H27       -43.2428  -47.5628   -6.2471 H           1 MOL       0.1000
     63 H28       -41.6727  -45.3498  -10.9975 H           1 MOL       0.0600
     64 H29       -40.3404  -46.6186   -4.4597 H           1 MOL       0.0528
     65 H30       -40.1492  -47.3742   -6.0482 H           1 MOL       0.0528
     66 H31       -41.3787  -47.9760   -4.9011 H           1 MOL       0.0528
@<TRIPOS>BOND
     1     1    15   1
     2     1    16   1
     3    25     1  am
     4     2     4   1
     5    13     2   1
     6     3     4   2
     7     3     5   1
     8    14     3   1
     9     5     6  am
    10     6     7   1
    11     6     8   2
    12     7     9  ar
    13     7    12  ar
    14     9    10  ar
    15    10    24  ar
    16    12    11  ar
    17    11    24  ar
    18    13    14   2
    19    16    13   1
    20    15    14   1
    21    17    18   1
    22    17    22   1
    23    24    17   1
    24    18    19   1
    25    19    20   1
    26    21    20   1
    27    20    23   1
    28    22    21   1
    29    25    26   2
    30    32    25   1
    31    27    28  ar
    32    29    27  ar
    33    28    30  ar
    34    29    31  ar
    35    29    32   1
    36    30    33  ar
    37    31    33  ar
    38    32    35   1
    39    35    34   1
    40     2    36   1
    41     5    37   1
    42     9    38   1
    43    10    39   1
    44    11    40   1
    45    12    41   1
    46    15    42   1
    47    15    43   1
    48    16    44   1
    49    16    45   1
    50    18    46   1
    51    18    47   1
    52    19    48   1
    53    19    49   1
    54    20    50   1
    55    21    51   1
    56    21    52   1
    57    22    53   1
    58    22    54   1
    59    23    55   1
    60    23    56   1
    61    23    57   1
    62    27    58   1
    63    28    59   1
    64    30    60   1
    65    31    61   1
    66    32    62   1
    67    33    63   1
    68    34    64   1
    69    34    65   1
    70    34    66   1
@<TRIPOS>SUBSTRUCTURE
     1  MOL      3

