@<TRIPOS>MOLECULE
2v7a_ligand_057
    66    70
SMALL
GAST_HUCK
****
This file was generated by PARSER (from files_GN.cpp)

@<TRIPOS>ATOM
      1 N1        -45.1657  -45.7960   -6.2678 N.am        1 MOL      -0.2534
      2 N2        -44.5533  -48.6634   -8.3201 N.pl3       1 MOL      -0.2433
      3 C3        -45.5154  -49.4388   -6.5293 C.2         1 MOL       0.1027
      4 N4        -44.9757  -49.7360   -7.7310 N.2         1 MOL      -0.2404
      5 N5        -46.0372  -50.4221   -5.7607 N.am        1 MOL      -0.2391
      6 C6        -46.6492  -50.3634   -4.5778 C.2         1 MOL       0.2181
      7 C7        -47.1892  -51.5018   -3.9526 C.ar        1 MOL       0.0412
      8 O8        -46.7625  -49.2752   -4.0296 O.2         1 MOL      -0.3816
      9 C9        -47.8944  -51.4139   -2.7241 C.ar        1 MOL      -0.0531
     10 C10       -48.4743  -52.5409   -2.1131 C.ar        1 MOL      -0.0381
     11 C11       -47.6287  -53.9324   -3.8922 C.ar        1 MOL      -0.0381
     12 C12       -47.0838  -52.8021   -4.5189 C.ar        1 MOL      -0.0531
     13 C13       -44.7944  -47.6141   -7.5317 C.2         1 MOL       0.0786
     14 C14       -45.3934  -48.0550   -6.3906 C.2         1 MOL       0.0146
     15 C15       -45.6492  -46.9315   -5.5040 C.3         1 MOL       0.0514
     16 C16       -44.6095  -46.1768   -7.5457 C.3         1 MOL       0.0897
     17 N17       -48.8954  -54.9355   -2.0698 N.pl3       1 MOL      -0.2958
     18 C18       -48.1267  -56.1410   -1.7973 C.3         1 MOL       0.0680
     19 C19       -48.7748  -57.3612   -2.4974 C.3         1 MOL      -0.0118
     20 N20       -50.2360  -57.4992   -2.1948 N.4         1 MOL       0.2359
     21 C21       -50.9708  -56.2098   -2.4003 C.3         1 MOL      -0.0118
     22 C22       -50.2997  -54.9955   -1.6986 C.3         1 MOL       0.0680
     23 C23       -50.5204  -58.1451   -0.8837 C.3         1 MOL      -0.0430
     24 C24       -48.3486  -53.8364   -2.6756 C.ar        1 MOL       0.0460
     25 C25       -45.2534  -44.5101   -5.8731 C.2         1 MOL       0.2222
     26 O26       -44.8976  -43.6399   -6.6660 O.2         1 MOL      -0.3907
     27 C27       -45.0834  -41.6392   -4.7928 C.ar        1 MOL      -0.0555
     28 C28       -44.4266  -40.5157   -4.2569 C.ar        1 MOL      -0.0680
     29 C29       -45.2649  -42.8185   -4.0249 C.ar        1 MOL       0.0044
     30 C31       -43.9568  -40.5462   -2.9339 C.ar        1 MOL      -0.0684
     31 C33       -44.8201  -42.8051   -2.6835 C.ar        1 MOL      -0.0555
     32 C20       -45.8905  -44.0495   -4.6245 C.3         1 MOL       0.1804
     33 C35       -44.1494  -41.6928   -2.1474 C.ar        1 MOL      -0.0680
     34 C36       -48.2381  -44.5333   -4.1121 C.3         1 MOL       0.0424
     35 O34       -47.2811  -43.8162   -4.9259 O.3         1 MOL      -0.3473
     36 H1        -44.1409  -48.6287   -9.1903 H           1 MOL       0.2389
     37 H2        -45.9695  -51.3016   -6.1549 H           1 MOL       0.2188
     38 H3        -47.9976  -50.5132   -2.2436 H           1 MOL       0.0636
     39 H4        -48.9486  -52.4208   -1.2143 H           1 MOL       0.0530
     40 H5        -47.5500  -54.8335   -4.3661 H           1 MOL       0.0530
     41 H6        -46.6118  -52.9489   -5.4113 H           1 MOL       0.0636
     42 H7        -46.7142  -46.8461   -5.2846 H           1 MOL       0.0576
     43 H8        -45.0666  -47.0634   -4.5837 H           1 MOL       0.0576
     44 H9        -43.5532  -45.9187   -7.6106 H           1 MOL       0.0708
     45 H10       -45.1630  -45.7350   -8.3765 H           1 MOL       0.0708
     46 H11       -48.1237  -56.3113   -0.7168 H           1 MOL       0.0569
     47 H12       -47.0824  -56.0727   -2.1015 H           1 MOL       0.0569
     48 H13       -48.2322  -58.2711   -2.2242 H           1 MOL       0.0834
     49 H14       -48.6576  -57.2382   -3.5788 H           1 MOL       0.0834
     50 H15       -50.6060  -58.1457   -2.8988 H           1 MOL       0.2032
     51 H16       -52.0106  -56.2983   -2.0681 H           1 MOL       0.0834
     52 H17       -51.0006  -56.0079   -3.4721 H           1 MOL       0.0834
     53 H18       -50.8600  -54.1103   -1.9976 H           1 MOL       0.0569
     54 H19       -50.3899  -55.0959   -0.6131 H           1 MOL       0.0569
     55 H20       -51.5912  -58.3248   -0.7796 H           1 MOL       0.0778
     56 H21       -50.1877  -57.5325   -0.0477 H           1 MOL       0.0778
     57 H22       -50.0213  -59.1154   -0.8277 H           1 MOL       0.0778
     58 H23       -45.4174  -41.5899   -5.7621 H           1 MOL       0.0562
     59 H24       -44.2928  -39.6718   -4.8299 H           1 MOL       0.0600
     60 H25       -43.4589  -39.7373   -2.5511 H           1 MOL       0.0561
     61 H26       -44.9520  -43.6195   -2.0909 H           1 MOL       0.0562
     62 H27       -45.7966  -44.8568   -3.8910 H           1 MOL       0.1000
     63 H28       -43.8038  -41.7175   -1.1858 H           1 MOL       0.0600
     64 H29       -49.2406  -44.2420   -4.4189 H           1 MOL       0.0528
     65 H30       -48.1072  -44.2946   -3.0511 H           1 MOL       0.0528
     66 H31       -48.1315  -45.6109   -4.2586 H           1 MOL       0.0528
@<TRIPOS>BOND
     1     1    15   1
     2     1    16   1
     3    25     1  am
     4     2     4   1
     5    13     2   1
     6     3     4   2
     7     3     5   1
     8    14     3   1
     9     5     6  am
    10     6     7   1
    11     6     8   2
    12     7     9  ar
    13     7    12  ar
    14     9    10  ar
    15    10    24  ar
    16    12    11  ar
    17    11    24  ar
    18    13    14   2
    19    16    13   1
    20    15    14   1
    21    17    18   1
    22    17    22   1
    23    24    17   1
    24    18    19   1
    25    19    20   1
    26    21    20   1
    27    20    23   1
    28    22    21   1
    29    25    26   2
    30    32    25   1
    31    27    28  ar
    32    29    27  ar
    33    28    30  ar
    34    29    31  ar
    35    29    32   1
    36    30    33  ar
    37    31    33  ar
    38    32    35   1
    39    35    34   1
    40     2    36   1
    41     5    37   1
    42     9    38   1
    43    10    39   1
    44    11    40   1
    45    12    41   1
    46    15    42   1
    47    15    43   1
    48    16    44   1
    49    16    45   1
    50    18    46   1
    51    18    47   1
    52    19    48   1
    53    19    49   1
    54    20    50   1
    55    21    51   1
    56    21    52   1
    57    22    53   1
    58    22    54   1
    59    23    55   1
    60    23    56   1
    61    23    57   1
    62    27    58   1
    63    28    59   1
    64    30    60   1
    65    31    61   1
    66    32    62   1
    67    33    63   1
    68    34    64   1
    69    34    65   1
    70    34    66   1
@<TRIPOS>SUBSTRUCTURE
     1  MOL      3

