@<TRIPOS>MOLECULE
2v7a_ligand_028
    66    70
SMALL
GAST_HUCK
****
This file was generated by PARSER (from files_GN.cpp)

@<TRIPOS>ATOM
      1 N1        -41.5839  -46.9293  -10.1924 N.am        1 MOL      -0.2534
      2 N2        -39.1359  -47.6489  -12.7477 N.pl3       1 MOL      -0.2433
      3 C3        -40.5363  -49.3074  -12.7887 C.2         1 MOL       0.1027
      4 N4        -39.4143  -48.7821  -13.3217 N.2         1 MOL      -0.2404
      5 N5        -41.0293  -50.4846  -13.2481 N.am        1 MOL      -0.2391
      6 C6        -42.1363  -51.1335  -12.9019 C.2         1 MOL       0.2181
      7 C7        -42.4715  -52.3619  -13.4863 C.ar        1 MOL       0.0412
      8 O8        -42.8985  -50.6499  -12.0768 O.2         1 MOL      -0.3816
      9 C9        -41.4858  -53.2167  -14.0337 C.ar        1 MOL      -0.0531
     10 C10       -41.8239  -54.4665  -14.5825 C.ar        1 MOL      -0.0381
     11 C11       -44.1643  -54.0210  -14.1577 C.ar        1 MOL      -0.0381
     12 C12       -43.8178  -52.8049  -13.5373 C.ar        1 MOL      -0.0531
     13 C13       -40.0536  -47.3906  -11.8073 C.2         1 MOL       0.0786
     14 C14       -40.9499  -48.4152  -11.7988 C.2         1 MOL       0.0146
     15 C15       -41.9708  -48.1869  -10.7877 C.3         1 MOL       0.0514
     16 C16       -40.3901  -46.3802  -10.8155 C.3         1 MOL       0.0897
     17 N17       -43.4967  -56.0871  -15.2349 N.pl3       1 MOL      -0.2958
     18 C18       -44.4833  -56.1714  -16.2927 C.3         1 MOL       0.0680
     19 C19       -43.8251  -56.7987  -17.5517 C.3         1 MOL      -0.0118
     20 N20       -43.1168  -58.0897  -17.2707 N.4         1 MOL       0.2359
     21 C21       -42.1667  -57.9685  -16.1201 C.3         1 MOL      -0.0118
     22 C22       -42.8072  -57.3094  -14.8744 C.3         1 MOL       0.0680
     23 C23       -44.0346  -59.2613  -17.1748 C.3         1 MOL      -0.0430
     24 C24       -43.1700  -54.8867  -14.6707 C.ar        1 MOL       0.0460
     25 C25       -42.2147  -46.3397   -9.1555 C.2         1 MOL       0.2222
     26 O26       -41.6746  -45.3528   -8.6649 O.2         1 MOL      -0.3907
     27 C27       -44.3388  -45.3734   -6.5516 C.ar        1 MOL      -0.0555
     28 C28       -45.2206  -44.3700   -6.1031 C.ar        1 MOL      -0.0680
     29 C29       -44.2851  -45.7364   -7.9207 C.ar        1 MOL       0.0044
     30 C31       -46.0813  -43.7308   -7.0135 C.ar        1 MOL      -0.0684
     31 C33       -45.1312  -45.0514   -8.8286 C.ar        1 MOL      -0.0555
     32 C20       -43.3831  -46.8413   -8.3999 C.3         1 MOL       0.1804
     33 C35       -46.0316  -44.0668   -8.3764 C.ar        1 MOL      -0.0680
     34 C36       -45.1105  -48.6250   -8.4300 C.3         1 MOL       0.0424
     35 O34       -44.1605  -47.8083   -9.1512 O.3         1 MOL      -0.3473
     36 H1        -38.3741  -47.0938  -12.9746 H           1 MOL       0.2389
     37 H2        -40.4958  -50.8905  -13.9482 H           1 MOL       0.2188
     38 H3        -40.4998  -52.9554  -14.0306 H           1 MOL       0.0636
     39 H4        -41.0818  -55.0464  -14.9783 H           1 MOL       0.0530
     40 H5        -45.1499  -54.3016  -14.1834 H           1 MOL       0.0530
     41 H6        -44.5724  -52.2347  -13.1423 H           1 MOL       0.0636
     42 H7        -42.9416  -48.1089  -11.2746 H           1 MOL       0.0576
     43 H8        -41.9465  -48.9937  -10.0556 H           1 MOL       0.0576
     44 H9        -39.5671  -46.2743  -10.1031 H           1 MOL       0.0708
     45 H10       -40.5934  -45.4250  -11.3079 H           1 MOL       0.0708
     46 H11       -44.8730  -55.1881  -16.5781 H           1 MOL       0.0569
     47 H12       -45.3311  -56.7778  -15.9680 H           1 MOL       0.0569
     48 H13       -43.0883  -56.0920  -17.9472 H           1 MOL       0.0834
     49 H14       -44.5793  -56.9371  -18.3318 H           1 MOL       0.0834
     50 H15       -42.5336  -58.2738  -18.0904 H           1 MOL       0.2032
     51 H16       -41.3182  -57.3547  -16.4377 H           1 MOL       0.0834
     52 H17       -41.7614  -58.9481  -15.8439 H           1 MOL       0.0834
     53 H18       -43.5276  -57.9997  -14.4313 H           1 MOL       0.0569
     54 H19       -42.0304  -57.1520  -14.1206 H           1 MOL       0.0569
     55 H20       -44.5915  -59.3727  -18.1058 H           1 MOL       0.0778
     56 H21       -44.7427  -59.1533  -16.3527 H           1 MOL       0.0778
     57 H22       -43.4633  -60.1793  -17.0255 H           1 MOL       0.0778
     58 H23       -43.7343  -45.8357   -5.8707 H           1 MOL       0.0562
     59 H24       -45.2441  -44.1161   -5.1150 H           1 MOL       0.0600
     60 H25       -46.7343  -43.0157   -6.6840 H           1 MOL       0.0561
     61 H26       -45.1076  -45.2821   -9.8221 H           1 MOL       0.0562
     62 H27       -42.9558  -47.3710   -7.5410 H           1 MOL       0.1000
     63 H28       -46.6558  -43.6032   -9.0377 H           1 MOL       0.0600
     64 H29       -45.5549  -49.3371   -9.1267 H           1 MOL       0.0528
     65 H30       -45.9115  -48.0167   -8.0023 H           1 MOL       0.0528
     66 H31       -44.6154  -49.1867   -7.6335 H           1 MOL       0.0528
@<TRIPOS>BOND
     1     1    15   1
     2     1    16   1
     3    25     1  am
     4     2     4   1
     5    13     2   1
     6     3     4   2
     7     3     5   1
     8    14     3   1
     9     5     6  am
    10     6     7   1
    11     6     8   2
    12     7     9  ar
    13     7    12  ar
    14     9    10  ar
    15    10    24  ar
    16    12    11  ar
    17    11    24  ar
    18    13    14   2
    19    16    13   1
    20    15    14   1
    21    17    18   1
    22    17    22   1
    23    24    17   1
    24    18    19   1
    25    19    20   1
    26    21    20   1
    27    20    23   1
    28    22    21   1
    29    25    26   2
    30    32    25   1
    31    27    28  ar
    32    29    27  ar
    33    28    30  ar
    34    29    31  ar
    35    29    32   1
    36    30    33  ar
    37    31    33  ar
    38    32    35   1
    39    35    34   1
    40     2    36   1
    41     5    37   1
    42     9    38   1
    43    10    39   1
    44    11    40   1
    45    12    41   1
    46    15    42   1
    47    15    43   1
    48    16    44   1
    49    16    45   1
    50    18    46   1
    51    18    47   1
    52    19    48   1
    53    19    49   1
    54    20    50   1
    55    21    51   1
    56    21    52   1
    57    22    53   1
    58    22    54   1
    59    23    55   1
    60    23    56   1
    61    23    57   1
    62    27    58   1
    63    28    59   1
    64    30    60   1
    65    31    61   1
    66    32    62   1
    67    33    63   1
    68    34    64   1
    69    34    65   1
    70    34    66   1
@<TRIPOS>SUBSTRUCTURE
     1  MOL      3

