@<TRIPOS>MOLECULE
2v7a_ligand_044
    66    70
SMALL
GAST_HUCK
****
This file was generated by PARSER (from files_GN.cpp)

@<TRIPOS>ATOM
      1 N1        -46.0822  -42.7192   -1.1635 N.am        1 MOL      -0.2534
      2 N2        -48.7023  -45.1533   -1.4219 N.pl3       1 MOL      -0.2433
      3 C3        -47.3704  -45.5671   -3.0844 C.2         1 MOL       0.1027
      4 N4        -48.4931  -45.9442   -2.4333 N.2         1 MOL      -0.2404
      5 N5        -46.9338  -46.2699   -4.1593 N.am        1 MOL      -0.2391
      6 C6        -45.9195  -46.0232   -4.9865 C.2         1 MOL       0.2181
      7 C7        -45.5372  -46.9250   -5.9945 C.ar        1 MOL       0.0412
      8 O8        -45.3902  -44.9178   -4.9456 O.2         1 MOL      -0.3816
      9 C9        -45.9991  -48.2610   -6.0199 C.ar        1 MOL      -0.0531
     10 C10       -45.6689  -49.1345   -7.0711 C.ar        1 MOL      -0.0381
     11 C11       -44.3113  -47.4315   -8.0695 C.ar        1 MOL      -0.0381
     12 C12       -44.6663  -46.5412   -7.0411 C.ar        1 MOL      -0.0531
     13 C13       -47.7315  -44.2399   -1.3585 C.2         1 MOL       0.0786
     14 C14       -46.8645  -44.4676   -2.3881 C.2         1 MOL       0.0146
     15 C15       -45.7409  -43.5436   -2.3029 C.3         1 MOL       0.0514
     16 C16       -47.3117  -43.1304   -0.5231 C.3         1 MOL       0.0897
     17 N17       -44.4939  -49.6203   -9.1846 N.pl3       1 MOL      -0.2958
     18 C18       -44.0327  -49.1675  -10.4969 C.3         1 MOL       0.0680
     19 C19       -44.9535  -49.7151  -11.6201 C.3         1 MOL      -0.0118
     20 N20       -45.1666  -51.1926  -11.5498 N.4         1 MOL       0.2359
     21 C21       -45.5555  -51.6236  -10.1706 C.3         1 MOL      -0.0118
     22 C22       -44.5840  -51.0765   -9.0916 C.3         1 MOL       0.0680
     23 C23       -44.0496  -51.9868  -12.1435 C.3         1 MOL      -0.0430
     24 C24       -44.8166  -48.7589   -8.1464 C.ar        1 MOL       0.0460
     25 C25       -45.3610  -41.6686   -0.7401 C.2         1 MOL       0.2222
     26 O26       -45.7561  -41.0600    0.2520 O.2         1 MOL      -0.3907
     27 C27       -44.1676  -39.8873   -3.5597 C.ar        1 MOL      -0.0555
     28 C28       -44.4387  -38.7316   -4.3161 C.ar        1 MOL      -0.0680
     29 C29       -44.3815  -39.9127   -2.1577 C.ar        1 MOL       0.0044
     30 C31       -44.9255  -37.5739   -3.6855 C.ar        1 MOL      -0.0684
     31 C33       -44.8516  -38.7244   -1.5401 C.ar        1 MOL      -0.0555
     32 C20       -44.1317  -41.1608   -1.3645 C.3         1 MOL       0.1804
     33 C35       -45.1302  -37.5710   -2.2963 C.ar        1 MOL      -0.0680
     34 C36       -41.7836  -41.2043   -0.6387 C.3         1 MOL       0.0424
     35 O34       -43.1553  -40.9084   -0.3261 O.3         1 MOL      -0.3473
     36 H1        -49.4408  -45.2342   -0.7946 H           1 MOL       0.2389
     37 H2        -47.4498  -47.0700   -4.3473 H           1 MOL       0.2188
     38 H3        -46.5920  -48.6281   -5.2740 H           1 MOL       0.0636
     39 H4        -46.1257  -50.0411   -7.0450 H           1 MOL       0.0530
     40 H5        -43.6363  -47.0829   -8.7449 H           1 MOL       0.0530
     41 H6        -44.2802  -45.5955   -7.0824 H           1 MOL       0.0636
     42 H7        -44.8180  -44.0970   -2.1168 H           1 MOL       0.0576
     43 H8        -45.6537  -42.9556   -3.2187 H           1 MOL       0.0576
     44 H9        -48.0640  -42.3411   -0.5445 H           1 MOL       0.0708
     45 H10       -47.1379  -43.4716    0.4981 H           1 MOL       0.0708
     46 H11       -43.0075  -49.5076  -10.6582 H           1 MOL       0.0569
     47 H12       -44.0365  -48.0896  -10.6331 H           1 MOL       0.0569
     48 H13       -44.5500  -49.4264  -12.5956 H           1 MOL       0.0834
     49 H14       -45.9295  -49.2319  -11.5292 H           1 MOL       0.0834
     50 H15       -45.9770  -51.3915  -12.1413 H           1 MOL       0.2032
     51 H16       -45.6029  -52.7130  -10.1022 H           1 MOL       0.0834
     52 H17       -46.5609  -51.2433   -9.9606 H           1 MOL       0.0834
     53 H18       -44.8898  -51.4671   -8.1247 H           1 MOL       0.0569
     54 H19       -43.5881  -51.5005   -9.2449 H           1 MOL       0.0569
     55 H20       -44.3135  -53.0461  -12.1617 H           1 MOL       0.0778
     56 H21       -43.1198  -51.8679  -11.5831 H           1 MOL       0.0778
     57 H22       -43.8751  -51.6750  -13.1761 H           1 MOL       0.0778
     58 H23       -43.8178  -40.7180   -4.0456 H           1 MOL       0.0562
     59 H24       -44.2816  -38.7350   -5.3263 H           1 MOL       0.0600
     60 H25       -45.1281  -36.7382   -4.2348 H           1 MOL       0.0561
     61 H26       -45.0140  -38.6953   -0.5308 H           1 MOL       0.0562
     62 H27       -43.7401  -41.9337   -2.0305 H           1 MOL       0.1000
     63 H28       -45.4877  -36.7321   -1.8351 H           1 MOL       0.0600
     64 H29       -41.1564  -40.8611    0.1832 H           1 MOL       0.0528
     65 H30       -41.4751  -40.6951   -1.5534 H           1 MOL       0.0528
     66 H31       -41.6417  -42.2835   -0.7549 H           1 MOL       0.0528
@<TRIPOS>BOND
     1     1    15   1
     2     1    16   1
     3    25     1  am
     4     2     4   1
     5    13     2   1
     6     3     4   2
     7     3     5   1
     8    14     3   1
     9     5     6  am
    10     6     7   1
    11     6     8   2
    12     7     9  ar
    13     7    12  ar
    14     9    10  ar
    15    10    24  ar
    16    12    11  ar
    17    11    24  ar
    18    13    14   2
    19    16    13   1
    20    15    14   1
    21    17    18   1
    22    17    22   1
    23    24    17   1
    24    18    19   1
    25    19    20   1
    26    21    20   1
    27    20    23   1
    28    22    21   1
    29    25    26   2
    30    32    25   1
    31    27    28  ar
    32    29    27  ar
    33    28    30  ar
    34    29    31  ar
    35    29    32   1
    36    30    33  ar
    37    31    33  ar
    38    32    35   1
    39    35    34   1
    40     2    36   1
    41     5    37   1
    42     9    38   1
    43    10    39   1
    44    11    40   1
    45    12    41   1
    46    15    42   1
    47    15    43   1
    48    16    44   1
    49    16    45   1
    50    18    46   1
    51    18    47   1
    52    19    48   1
    53    19    49   1
    54    20    50   1
    55    21    51   1
    56    21    52   1
    57    22    53   1
    58    22    54   1
    59    23    55   1
    60    23    56   1
    61    23    57   1
    62    27    58   1
    63    28    59   1
    64    30    60   1
    65    31    61   1
    66    32    62   1
    67    33    63   1
    68    34    64   1
    69    34    65   1
    70    34    66   1
@<TRIPOS>SUBSTRUCTURE
     1  MOL      3

