@<TRIPOS>MOLECULE
2v7a_ligand_082
    66    70
SMALL
GAST_HUCK
****
This file was generated by PARSER (from files_GN.cpp)

@<TRIPOS>ATOM
      1 N1        -40.4712  -48.1071  -11.1232 N.am        1 MOL      -0.2534
      2 N2        -40.6114  -51.2228  -12.8845 N.pl3       1 MOL      -0.2433
      3 C3        -42.1747  -51.3486  -11.3918 C.2         1 MOL       0.1027
      4 N4        -41.5672  -51.9679  -12.4266 N.2         1 MOL      -0.2404
      5 N5        -43.2239  -51.9426  -10.7897 N.am        1 MOL      -0.2391
      6 C6        -43.9719  -51.5466   -9.7647 C.2         1 MOL       0.2181
      7 C7        -45.0674  -52.3108   -9.3422 C.ar        1 MOL       0.0412
      8 O8        -43.6751  -50.5272   -9.1500 O.2         1 MOL      -0.3816
      9 C9        -45.6066  -52.1637   -8.0377 C.ar        1 MOL      -0.0531
     10 C10       -46.7023  -52.9301   -7.6083 C.ar        1 MOL      -0.0381
     11 C11       -46.7501  -54.0612   -9.7537 C.ar        1 MOL      -0.0381
     12 C12       -45.6880  -53.2619  -10.1982 C.ar        1 MOL      -0.0531
     13 C13       -40.5635  -50.0930  -12.1775 C.2         1 MOL       0.0786
     14 C14       -41.5253  -50.1252  -11.2178 C.2         1 MOL       0.0146
     15 C15       -41.5097  -48.8742  -10.4568 C.3         1 MOL       0.0514
     16 C16       -39.8267  -48.8567  -12.1807 C.3         1 MOL       0.0897
     17 N17       -48.3105  -54.6902   -8.0200 N.pl3       1 MOL      -0.2958
     18 C18       -49.6137  -54.1174   -7.7657 C.3         1 MOL       0.0680
     19 C19       -50.6459  -54.8020   -8.7053 C.3         1 MOL      -0.0118
     20 N20       -50.6252  -56.2993   -8.6026 N.4         1 MOL       0.2359
     21 C21       -49.2409  -56.8437   -8.7870 C.3         1 MOL      -0.0118
     22 C22       -48.1903  -56.1292   -7.9001 C.3         1 MOL       0.0680
     23 C23       -51.3258  -56.8185   -7.3919 C.3         1 MOL      -0.0430
     24 C24       -47.2735  -53.9142   -8.4489 C.ar        1 MOL       0.0460
     25 C25       -40.1236  -46.8353  -10.8411 C.2         1 MOL       0.2222
     26 O26       -39.3562  -46.2677  -11.6097 O.2         1 MOL      -0.3907
     27 C27       -40.7365  -44.0213   -8.2459 C.ar        1 MOL      -0.0555
     28 C28       -40.2133  -42.8171   -7.7301 C.ar        1 MOL      -0.0680
     29 C29       -40.0795  -44.7379   -9.2812 C.ar        1 MOL       0.0044
     30 C31       -38.9948  -42.3132   -8.2136 C.ar        1 MOL      -0.0684
     31 C33       -38.8394  -44.2162   -9.7368 C.ar        1 MOL      -0.0555
     32 C20       -40.7221  -46.0186   -9.7740 C.3         1 MOL       0.1804
     33 C35       -38.3069  -43.0170   -9.2148 C.ar        1 MOL      -0.0680
     34 C36       -42.4596  -45.0847  -11.2865 C.3         1 MOL       0.0424
     35 O34       -42.1220  -45.7849  -10.0767 O.3         1 MOL      -0.3473
     36 H1        -40.0353  -51.4352  -13.6345 H           1 MOL       0.2389
     37 H2        -43.4618  -52.8005  -11.1722 H           1 MOL       0.2188
     38 H3        -45.1878  -51.5104   -7.3695 H           1 MOL       0.0636
     39 H4        -47.0402  -52.8101   -6.6490 H           1 MOL       0.0530
     40 H5        -47.1813  -54.7157  -10.4132 H           1 MOL       0.0530
     41 H6        -45.3873  -53.3768  -11.1689 H           1 MOL       0.0636
     42 H7        -42.4849  -48.3884  -10.5347 H           1 MOL       0.0576
     43 H8        -41.2645  -49.0599   -9.4095 H           1 MOL       0.0576
     44 H9        -38.7761  -49.0485  -11.9569 H           1 MOL       0.0708
     45 H10       -39.9328  -48.3789  -13.1553 H           1 MOL       0.0708
     46 H11       -49.6521  -53.0399   -7.9552 H           1 MOL       0.0569
     47 H12       -49.8855  -54.2728   -6.7212 H           1 MOL       0.0569
     48 H13       -50.4119  -54.5285   -9.7399 H           1 MOL       0.0834
     49 H14       -51.6453  -54.4102   -8.5003 H           1 MOL       0.0834
     50 H15       -51.1681  -56.6488   -9.3981 H           1 MOL       0.2032
     51 H16       -48.9583  -56.7182   -9.8365 H           1 MOL       0.0834
     52 H17       -49.2122  -57.9184   -8.5824 H           1 MOL       0.0834
     53 H18       -48.3589  -56.4005   -6.8558 H           1 MOL       0.0569
     54 H19       -47.1935  -56.4986   -8.1571 H           1 MOL       0.0569
     55 H20       -52.3642  -56.4810   -7.3877 H           1 MOL       0.0778
     56 H21       -50.8493  -56.4833   -6.4685 H           1 MOL       0.0778
     57 H22       -51.3380  -57.9103   -7.3948 H           1 MOL       0.0778
     58 H23       -41.6138  -44.3746   -7.8462 H           1 MOL       0.0562
     59 H24       -40.7025  -42.3265   -6.9747 H           1 MOL       0.0600
     60 H25       -38.5974  -41.4583   -7.8080 H           1 MOL       0.0561
     61 H26       -38.2831  -44.7111  -10.4357 H           1 MOL       0.0562
     62 H27       -40.7189  -46.6578   -8.8900 H           1 MOL       0.1000
     63 H28       -37.4060  -42.6676   -9.5467 H           1 MOL       0.0600
     64 H29       -43.5001  -44.7641  -11.2094 H           1 MOL       0.0528
     65 H30       -42.3632  -45.7441  -12.1492 H           1 MOL       0.0528
     66 H31       -41.8311  -44.2071  -11.4273 H           1 MOL       0.0528
@<TRIPOS>BOND
     1     1    15   1
     2     1    16   1
     3    25     1  am
     4     2     4   1
     5    13     2   1
     6     3     4   2
     7     3     5   1
     8    14     3   1
     9     5     6  am
    10     6     7   1
    11     6     8   2
    12     7     9  ar
    13     7    12  ar
    14     9    10  ar
    15    10    24  ar
    16    12    11  ar
    17    11    24  ar
    18    13    14   2
    19    16    13   1
    20    15    14   1
    21    17    18   1
    22    17    22   1
    23    24    17   1
    24    18    19   1
    25    19    20   1
    26    21    20   1
    27    20    23   1
    28    22    21   1
    29    25    26   2
    30    32    25   1
    31    27    28  ar
    32    29    27  ar
    33    28    30  ar
    34    29    31  ar
    35    29    32   1
    36    30    33  ar
    37    31    33  ar
    38    32    35   1
    39    35    34   1
    40     2    36   1
    41     5    37   1
    42     9    38   1
    43    10    39   1
    44    11    40   1
    45    12    41   1
    46    15    42   1
    47    15    43   1
    48    16    44   1
    49    16    45   1
    50    18    46   1
    51    18    47   1
    52    19    48   1
    53    19    49   1
    54    20    50   1
    55    21    51   1
    56    21    52   1
    57    22    53   1
    58    22    54   1
    59    23    55   1
    60    23    56   1
    61    23    57   1
    62    27    58   1
    63    28    59   1
    64    30    60   1
    65    31    61   1
    66    32    62   1
    67    33    63   1
    68    34    64   1
    69    34    65   1
    70    34    66   1
@<TRIPOS>SUBSTRUCTURE
     1  MOL      3

