@<TRIPOS>MOLECULE
2v7a_ligand_023
    66    70
SMALL
GAST_HUCK
****
This file was generated by PARSER (from files_GN.cpp)

@<TRIPOS>ATOM
      1 N1        -40.1649  -45.7634  -10.6411 N.am        1 MOL      -0.2534
      2 N2        -39.0451  -48.1878  -13.0023 N.pl3       1 MOL      -0.2433
      3 C3        -40.5540  -49.2077  -11.8200 C.2         1 MOL       0.1027
      4 N4        -39.6581  -49.3111  -12.8160 N.2         1 MOL      -0.2404
      5 N5        -41.3359  -50.2691  -11.4646 N.am        1 MOL      -0.2391
      6 C6        -42.2704  -50.3606  -10.5394 C.2         1 MOL       0.2181
      7 C7        -43.0309  -51.5336  -10.3306 C.ar        1 MOL       0.0412
      8 O8        -42.5043  -49.3853   -9.8238 O.2         1 MOL      -0.3816
      9 C9        -44.1045  -51.5565   -9.4059 C.ar        1 MOL      -0.0531
     10 C10       -44.8858  -52.7048   -9.2020 C.ar        1 MOL      -0.0381
     11 C11       -43.5515  -53.8939  -10.8172 C.ar        1 MOL      -0.0381
     12 C12       -42.7895  -52.7408  -11.0474 C.ar        1 MOL      -0.0531
     13 C13       -39.4961  -47.2948  -12.1248 C.2         1 MOL       0.0786
     14 C14       -40.4578  -47.8916  -11.3646 C.2         1 MOL       0.0146
     15 C15       -40.9644  -46.9404  -10.3962 C.3         1 MOL       0.0514
     16 C16       -39.2623  -45.9273  -11.7542 C.3         1 MOL       0.0897
     17 N17       -45.3875  -55.0397   -9.6959 N.pl3       1 MOL      -0.2958
     18 C18       -46.8399  -55.0042   -9.5978 C.3         1 MOL       0.0680
     19 C19       -47.3025  -55.6203   -8.2499 C.3         1 MOL      -0.0118
     20 N20       -46.7398  -56.9929   -8.0326 N.4         1 MOL       0.2359
     21 C21       -45.2541  -56.9995   -8.2032 C.3         1 MOL      -0.0118
     22 C22       -44.7936  -56.3622   -9.5441 C.3         1 MOL       0.0680
     23 C23       -47.4406  -58.0594   -8.7991 C.3         1 MOL      -0.0430
     24 C24       -44.6299  -53.9123   -9.8951 C.ar        1 MOL       0.0460
     25 C25       -40.1964  -44.6401   -9.9124 C.2         1 MOL       0.2222
     26 O26       -39.5516  -43.6819  -10.3649 O.2         1 MOL      -0.3907
     27 C27       -40.2300  -46.2985   -7.3944 C.ar        1 MOL      -0.0555
     28 C28       -40.4125  -47.2737   -6.3821 C.ar        1 MOL      -0.0680
     29 C29       -41.2713  -45.4092   -7.7390 C.ar        1 MOL       0.0044
     30 C31       -41.6309  -47.3249   -5.6797 C.ar        1 MOL      -0.0684
     31 C33       -42.4871  -45.4753   -7.0127 C.ar        1 MOL      -0.0555
     32 C20       -41.0903  -44.3519   -8.7892 C.3         1 MOL       0.1804
     33 C35       -42.6535  -46.4088   -5.9654 C.ar        1 MOL      -0.0680
     34 C36       -39.6384  -42.3704   -8.1699 C.3         1 MOL       0.0424
     35 O34       -40.8617  -43.1288   -8.0354 O.3         1 MOL      -0.3473
     36 H1        -38.3472  -48.0289  -13.6527 H           1 MOL       0.2389
     37 H2        -41.1643  -51.0690  -11.9873 H           1 MOL       0.2188
     38 H3        -44.3362  -50.7290   -8.8485 H           1 MOL       0.0636
     39 H4        -45.6166  -52.6603   -8.4850 H           1 MOL       0.0530
     40 H5        -43.3438  -54.7236  -11.3829 H           1 MOL       0.0530
     41 H6        -42.0369  -52.7986  -11.7359 H           1 MOL       0.0636
     42 H7        -42.0266  -46.7440  -10.5415 H           1 MOL       0.0576
     43 H8        -40.8030  -47.3382   -9.3983 H           1 MOL       0.0576
     44 H9        -38.2248  -45.8025  -11.4542 H           1 MOL       0.0708
     45 H10       -39.4993  -45.2604  -12.5830 H           1 MOL       0.0708
     46 H11       -47.2577  -55.5864  -10.4209 H           1 MOL       0.0569
     47 H12       -47.2692  -54.0021   -9.6954 H           1 MOL       0.0569
     48 H13       -48.3983  -55.6354   -8.2141 H           1 MOL       0.0834
     49 H14       -46.9660  -54.9701   -7.4360 H           1 MOL       0.0834
     50 H15       -46.9110  -57.2089   -7.0506 H           1 MOL       0.2032
     51 H16       -44.8576  -58.0164   -8.1294 H           1 MOL       0.0834
     52 H17       -44.8122  -56.4292   -7.3830 H           1 MOL       0.0834
     53 H18       -43.6985  -56.3436   -9.5181 H           1 MOL       0.0569
     54 H19       -45.0907  -56.9947  -10.3858 H           1 MOL       0.0569
     55 H20       -47.0586  -59.0422   -8.5121 H           1 MOL       0.0778
     56 H21       -47.3117  -57.9470   -9.8794 H           1 MOL       0.0778
     57 H22       -48.5087  -58.0496   -8.5782 H           1 MOL       0.0778
     58 H23       -39.3490  -46.2879   -7.9034 H           1 MOL       0.0562
     59 H24       -39.6611  -47.9160   -6.1357 H           1 MOL       0.0600
     60 H25       -41.7581  -48.0086   -4.9232 H           1 MOL       0.0561
     61 H26       -43.2379  -44.8094   -7.2030 H           1 MOL       0.0562
     62 H27       -42.0646  -44.1940   -9.2590 H           1 MOL       0.1000
     63 H28       -43.5403  -46.4340   -5.4510 H           1 MOL       0.0600
     64 H29       -39.4366  -41.9185   -7.2032 H           1 MOL       0.0528
     65 H30       -39.7738  -41.5723   -8.9083 H           1 MOL       0.0528
     66 H31       -38.7915  -42.9855   -8.4580 H           1 MOL       0.0528
@<TRIPOS>BOND
     1     1    15   1
     2     1    16   1
     3    25     1  am
     4     2     4   1
     5    13     2   1
     6     3     4   2
     7     3     5   1
     8    14     3   1
     9     5     6  am
    10     6     7   1
    11     6     8   2
    12     7     9  ar
    13     7    12  ar
    14     9    10  ar
    15    10    24  ar
    16    12    11  ar
    17    11    24  ar
    18    13    14   2
    19    16    13   1
    20    15    14   1
    21    17    18   1
    22    17    22   1
    23    24    17   1
    24    18    19   1
    25    19    20   1
    26    21    20   1
    27    20    23   1
    28    22    21   1
    29    25    26   2
    30    32    25   1
    31    27    28  ar
    32    29    27  ar
    33    28    30  ar
    34    29    31  ar
    35    29    32   1
    36    30    33  ar
    37    31    33  ar
    38    32    35   1
    39    35    34   1
    40     2    36   1
    41     5    37   1
    42     9    38   1
    43    10    39   1
    44    11    40   1
    45    12    41   1
    46    15    42   1
    47    15    43   1
    48    16    44   1
    49    16    45   1
    50    18    46   1
    51    18    47   1
    52    19    48   1
    53    19    49   1
    54    20    50   1
    55    21    51   1
    56    21    52   1
    57    22    53   1
    58    22    54   1
    59    23    55   1
    60    23    56   1
    61    23    57   1
    62    27    58   1
    63    28    59   1
    64    30    60   1
    65    31    61   1
    66    32    62   1
    67    33    63   1
    68    34    64   1
    69    34    65   1
    70    34    66   1
@<TRIPOS>SUBSTRUCTURE
     1  MOL      3

