@<TRIPOS>MOLECULE
2v7a_ligand_068
    66    70
SMALL
GAST_HUCK
****
This file was generated by PARSER (from files_GN.cpp)

@<TRIPOS>ATOM
      1 N1        -47.4013  -45.3056   -2.2897 N.am        1 MOL      -0.2534
      2 N2        -47.4659  -44.7624    1.2659 N.pl3       1 MOL      -0.2433
      3 C3        -47.8641  -46.8774    0.9885 C.2         1 MOL       0.1027
      4 N4        -47.7286  -45.8750    1.8831 N.2         1 MOL      -0.2404
      5 N5        -48.1844  -48.1265    1.3992 N.am        1 MOL      -0.2391
      6 C6        -48.4210  -49.2280    0.6858 C.2         1 MOL       0.2181
      7 C7        -48.7405  -50.4544    1.2899 C.ar        1 MOL       0.0412
      8 O8        -48.3777  -49.1727   -0.5352 O.2         1 MOL      -0.3816
      9 C9        -49.2718  -51.5274    0.5260 C.ar        1 MOL      -0.0531
     10 C10       -49.5667  -52.7704    1.1092 C.ar        1 MOL      -0.0381
     11 C11       -48.8584  -51.9318    3.2598 C.ar        1 MOL      -0.0381
     12 C12       -48.5379  -50.6930    2.6729 C.ar        1 MOL      -0.0531
     13 C13       -47.4257  -44.9826   -0.0540 C.2         1 MOL       0.0786
     14 C14       -47.6447  -46.3113   -0.2658 C.2         1 MOL       0.0146
     15 C15       -47.6225  -46.6013   -1.6904 C.3         1 MOL       0.0514
     16 C16       -47.2543  -44.2570   -1.2985 C.3         1 MOL       0.0897
     17 N17       -49.6508  -54.2234    3.0567 N.pl3       1 MOL      -0.2958
     18 C18       -49.2322  -55.4753    2.4546 C.3         1 MOL       0.0680
     19 C19       -50.4534  -56.3864    2.1852 C.3         1 MOL      -0.0118
     20 N20       -51.2575  -56.5570    3.4345 N.4         1 MOL       0.2359
     21 C21       -51.6592  -55.2432    4.0258 C.3         1 MOL      -0.0118
     22 C22       -50.4199  -54.3439    4.2799 C.3         1 MOL       0.0680
     23 C23       -52.4096  -57.4814    3.2407 C.3         1 MOL      -0.0430
     24 C24       -49.3680  -53.0044    2.4900 C.ar        1 MOL       0.0460
     25 C25       -47.3370  -45.0566   -3.6085 C.2         1 MOL       0.2222
     26 O26       -47.2201  -43.8882   -3.9608 O.2         1 MOL      -0.3907
     27 C27       -45.0730  -47.2856   -4.8568 C.ar        1 MOL      -0.0555
     28 C28       -43.7594  -47.4040   -5.3440 C.ar        1 MOL      -0.0680
     29 C29       -45.8811  -46.1691   -5.1936 C.ar        1 MOL       0.0044
     30 C31       -43.2228  -46.4054   -6.1751 C.ar        1 MOL      -0.0684
     31 C33       -45.3128  -45.1689   -6.0266 C.ar        1 MOL      -0.0555
     32 C20       -47.2941  -46.0257   -4.7116 C.3         1 MOL       0.1804
     33 C35       -43.9990  -45.2848   -6.5149 C.ar        1 MOL      -0.0680
     34 C36       -49.3008  -47.4537   -4.5003 C.3         1 MOL       0.0424
     35 O34       -47.8707  -47.3220   -4.4170 O.3         1 MOL      -0.3473
     36 H1        -47.3312  -43.9018    1.6915 H           1 MOL       0.2389
     37 H2        -48.2637  -48.2192    2.3599 H           1 MOL       0.2188
     38 H3        -49.4754  -51.4097   -0.4712 H           1 MOL       0.0636
     39 H4        -49.9857  -53.4914    0.5190 H           1 MOL       0.0530
     40 H5        -48.6512  -52.0641    4.2523 H           1 MOL       0.0530
     41 H6        -48.1132  -49.9813    3.2728 H           1 MOL       0.0636
     42 H7        -46.8166  -47.3009   -1.9310 H           1 MOL       0.0576
     43 H8        -48.5971  -47.0077   -1.9613 H           1 MOL       0.0576
     44 H9        -48.0279  -43.4900   -1.3981 H           1 MOL       0.0708
     45 H10       -46.2592  -43.8047   -1.3350 H           1 MOL       0.0708
     46 H11       -48.5645  -55.9868    3.1527 H           1 MOL       0.0569
     47 H12       -48.6643  -55.3482    1.5294 H           1 MOL       0.0569
     48 H13       -50.0883  -57.3582    1.8423 H           1 MOL       0.0834
     49 H14       -51.0626  -55.9477    1.3876 H           1 MOL       0.0834
     50 H15       -50.6427  -57.0041    4.1192 H           1 MOL       0.2032
     51 H16       -52.1688  -55.4059    4.9817 H           1 MOL       0.0834
     52 H17       -52.3514  -54.7216    3.3559 H           1 MOL       0.0834
     53 H18       -50.7890  -53.3810    4.6491 H           1 MOL       0.0569
     54 H19       -49.8008  -54.7860    5.0665 H           1 MOL       0.0569
     55 H20       -52.0490  -58.4670    2.9391 H           1 MOL       0.0778
     56 H21       -53.0935  -57.1077    2.4748 H           1 MOL       0.0778
     57 H22       -52.9623  -57.6054    4.1737 H           1 MOL       0.0778
     58 H23       -45.4347  -48.0256   -4.2519 H           1 MOL       0.0562
     59 H24       -43.1941  -48.2196   -5.0979 H           1 MOL       0.0600
     60 H25       -42.2678  -46.4933   -6.5321 H           1 MOL       0.0561
     61 H26       -45.8593  -44.3452   -6.2917 H           1 MOL       0.0562
     62 H27       -47.8649  -45.6144   -5.5544 H           1 MOL       0.1000
     63 H28       -43.6106  -44.5552   -7.1160 H           1 MOL       0.0600
     64 H29       -49.5678  -48.4407   -4.1250 H           1 MOL       0.0528
     65 H30       -49.6411  -47.3705   -5.5329 H           1 MOL       0.0528
     66 H31       -49.8053  -46.7009   -3.8905 H           1 MOL       0.0528
@<TRIPOS>BOND
     1     1    15   1
     2     1    16   1
     3    25     1  am
     4     2     4   1
     5    13     2   1
     6     3     4   2
     7     3     5   1
     8    14     3   1
     9     5     6  am
    10     6     7   1
    11     6     8   2
    12     7     9  ar
    13     7    12  ar
    14     9    10  ar
    15    10    24  ar
    16    12    11  ar
    17    11    24  ar
    18    13    14   2
    19    16    13   1
    20    15    14   1
    21    17    18   1
    22    17    22   1
    23    24    17   1
    24    18    19   1
    25    19    20   1
    26    21    20   1
    27    20    23   1
    28    22    21   1
    29    25    26   2
    30    32    25   1
    31    27    28  ar
    32    29    27  ar
    33    28    30  ar
    34    29    31  ar
    35    29    32   1
    36    30    33  ar
    37    31    33  ar
    38    32    35   1
    39    35    34   1
    40     2    36   1
    41     5    37   1
    42     9    38   1
    43    10    39   1
    44    11    40   1
    45    12    41   1
    46    15    42   1
    47    15    43   1
    48    16    44   1
    49    16    45   1
    50    18    46   1
    51    18    47   1
    52    19    48   1
    53    19    49   1
    54    20    50   1
    55    21    51   1
    56    21    52   1
    57    22    53   1
    58    22    54   1
    59    23    55   1
    60    23    56   1
    61    23    57   1
    62    27    58   1
    63    28    59   1
    64    30    60   1
    65    31    61   1
    66    32    62   1
    67    33    63   1
    68    34    64   1
    69    34    65   1
    70    34    66   1
@<TRIPOS>SUBSTRUCTURE
     1  MOL      3

