@<TRIPOS>MOLECULE
2v7a_ligand_005
    66    70
SMALL
GAST_HUCK
****
This file was generated by PARSER (from files_GN.cpp)

@<TRIPOS>ATOM
      1 N1        -39.7523  -45.8673   -9.8250 N.am        1 MOL      -0.2534
      2 N2        -38.6391  -47.9020  -12.5514 N.pl3       1 MOL      -0.2433
      3 C3        -40.7113  -48.4594  -12.2233 C.2         1 MOL       0.1027
      4 N4        -39.5916  -48.6877  -12.9462 N.2         1 MOL      -0.2404
      5 N5        -41.8010  -49.2413  -12.4171 N.am        1 MOL      -0.2391
      6 C6        -42.9665  -49.2840  -11.7772 C.2         1 MOL       0.2181
      7 C7        -43.8671  -50.3459  -11.9532 C.ar        1 MOL       0.0412
      8 O8        -43.2338  -48.3943  -10.9744 O.2         1 MOL      -0.3816
      9 C9        -43.6426  -51.3813  -12.8995 C.ar        1 MOL      -0.0531
     10 C10       -44.5158  -52.4653  -13.0330 C.ar        1 MOL      -0.0381
     11 C11       -45.8964  -51.5757  -11.2696 C.ar        1 MOL      -0.0381
     12 C12       -45.0358  -50.4754  -11.1514 C.ar        1 MOL      -0.0531
     13 C13       -39.0814  -47.1453  -11.5457 C.2         1 MOL       0.0786
     14 C14       -40.3969  -47.4394  -11.3297 C.2         1 MOL       0.0146
     15 C15       -40.9222  -46.6124  -10.2454 C.3         1 MOL       0.0514
     16 C16       -38.5751  -46.1619  -10.6090 C.3         1 MOL       0.0897
     17 N17       -46.5176  -53.6779  -12.3582 N.pl3       1 MOL      -0.2958
     18 C18       -46.9258  -54.4884  -11.2229 C.3         1 MOL       0.0680
     19 C19       -46.4943  -55.9562  -11.4597 C.3         1 MOL      -0.0118
     20 N20       -47.0248  -56.4547  -12.7669 N.4         1 MOL       0.2359
     21 C21       -46.6165  -55.5888  -13.9156 C.3         1 MOL      -0.0118
     22 C22       -47.0242  -54.1233  -13.6486 C.3         1 MOL       0.0680
     23 C23       -46.7071  -57.8900  -13.0060 C.3         1 MOL      -0.0430
     24 C24       -45.6732  -52.6066  -12.2244 C.ar        1 MOL       0.0460
     25 C25       -39.7221  -44.9958   -8.8056 C.2         1 MOL       0.2222
     26 O26       -38.6401  -44.6497   -8.3357 O.2         1 MOL      -0.3907
     27 C27       -41.1012  -45.9940   -6.3356 C.ar        1 MOL      -0.0555
     28 C28       -41.8775  -46.7435   -5.4305 C.ar        1 MOL      -0.0680
     29 C29       -41.7114  -45.1748   -7.3212 C.ar        1 MOL       0.0044
     30 C31       -43.2785  -46.6672   -5.4726 C.ar        1 MOL      -0.0684
     31 C33       -43.1260  -45.1037   -7.3373 C.ar        1 MOL      -0.0555
     32 C20       -40.9106  -44.3343   -8.2587 C.3         1 MOL       0.1804
     33 C35       -43.9012  -45.8354   -6.4217 C.ar        1 MOL      -0.0680
     34 C36       -39.7745  -42.1418   -8.2010 C.3         1 MOL       0.0424
     35 O34       -40.6099  -43.1181   -7.5282 O.3         1 MOL      -0.3473
     36 H1        -37.7512  -47.8753  -12.9307 H           1 MOL       0.2389
     37 H2        -41.6663  -49.9173  -13.0958 H           1 MOL       0.2188
     38 H3        -42.8249  -51.3736  -13.5101 H           1 MOL       0.0636
     39 H4        -44.2684  -53.2050  -13.6985 H           1 MOL       0.0530
     40 H5        -46.7317  -51.6010  -10.6723 H           1 MOL       0.0530
     41 H6        -45.2640  -49.7651  -10.4512 H           1 MOL       0.0636
     42 H7        -41.7149  -45.9592  -10.6193 H           1 MOL       0.0576
     43 H8        -41.2885  -47.2457   -9.4355 H           1 MOL       0.0576
     44 H9        -37.7743  -46.5935  -10.0060 H           1 MOL       0.0708
     45 H10       -38.2166  -45.2811  -11.1428 H           1 MOL       0.0708
     46 H11       -48.0107  -54.4385  -11.1008 H           1 MOL       0.0569
     47 H12       -46.4725  -54.1763  -10.2785 H           1 MOL       0.0569
     48 H13       -46.8805  -56.5665  -10.6421 H           1 MOL       0.0834
     49 H14       -45.4009  -56.0193  -11.4463 H           1 MOL       0.0834
     50 H15       -48.0448  -56.3925  -12.7055 H           1 MOL       0.2032
     51 H16       -47.1127  -55.9230  -14.8291 H           1 MOL       0.0834
     52 H17       -45.5352  -55.6428  -14.0740 H           1 MOL       0.0834
     53 H18       -46.6977  -53.5063  -14.4884 H           1 MOL       0.0569
     54 H19       -48.1140  -54.0543  -13.6405 H           1 MOL       0.0569
     55 H20       -47.0609  -58.5050  -12.1745 H           1 MOL       0.0778
     56 H21       -45.6274  -58.0445  -13.1205 H           1 MOL       0.0778
     57 H22       -47.2073  -58.2424  -13.9124 H           1 MOL       0.0778
     58 H23       -40.0828  -46.0610   -6.2716 H           1 MOL       0.0562
     59 H24       -41.4216  -47.3384   -4.7331 H           1 MOL       0.0600
     60 H25       -43.8423  -47.1869   -4.7961 H           1 MOL       0.0561
     61 H26       -43.6028  -44.4999   -8.0109 H           1 MOL       0.0562
     62 H27       -41.5337  -44.0414   -9.1130 H           1 MOL       0.1000
     63 H28       -44.9199  -45.7581   -6.4381 H           1 MOL       0.0600
     64 H29       -39.6953  -41.2642   -7.5545 H           1 MOL       0.0528
     65 H30       -40.2097  -41.8248   -9.1578 H           1 MOL       0.0528
     66 H31       -38.7585  -42.5226   -8.3804 H           1 MOL       0.0528
@<TRIPOS>BOND
     1     1    15   1
     2     1    16   1
     3    25     1  am
     4     2     4   1
     5    13     2   1
     6     3     4   2
     7     3     5   1
     8    14     3   1
     9     5     6  am
    10     6     7   1
    11     6     8   2
    12     7     9  ar
    13     7    12  ar
    14     9    10  ar
    15    10    24  ar
    16    12    11  ar
    17    11    24  ar
    18    13    14   2
    19    16    13   1
    20    15    14   1
    21    17    18   1
    22    17    22   1
    23    24    17   1
    24    18    19   1
    25    19    20   1
    26    21    20   1
    27    20    23   1
    28    22    21   1
    29    25    26   2
    30    32    25   1
    31    27    28  ar
    32    29    27  ar
    33    28    30  ar
    34    29    31  ar
    35    29    32   1
    36    30    33  ar
    37    31    33  ar
    38    32    35   1
    39    35    34   1
    40     2    36   1
    41     5    37   1
    42     9    38   1
    43    10    39   1
    44    11    40   1
    45    12    41   1
    46    15    42   1
    47    15    43   1
    48    16    44   1
    49    16    45   1
    50    18    46   1
    51    18    47   1
    52    19    48   1
    53    19    49   1
    54    20    50   1
    55    21    51   1
    56    21    52   1
    57    22    53   1
    58    22    54   1
    59    23    55   1
    60    23    56   1
    61    23    57   1
    62    27    58   1
    63    28    59   1
    64    30    60   1
    65    31    61   1
    66    32    62   1
    67    33    63   1
    68    34    64   1
    69    34    65   1
    70    34    66   1
@<TRIPOS>SUBSTRUCTURE
     1  MOL      3

