@<TRIPOS>MOLECULE
2v7a_ligand_017
    66    70
SMALL
GAST_HUCK
****
This file was generated by PARSER (from files_GN.cpp)

@<TRIPOS>ATOM
      1 N1        -44.5239  -45.2164   -6.1159 N.am        1 MOL      -0.2534
      2 N2        -47.7485  -45.0132   -4.5247 N.pl3       1 MOL      -0.2433
      3 C3        -47.2594  -47.1311   -4.6232 C.2         1 MOL       0.1027
      4 N4        -48.1586  -46.2073   -4.2115 N.2         1 MOL      -0.2404
      5 N5        -47.3300  -48.4734   -4.4657 N.am        1 MOL      -0.2391
      6 C6        -48.2224  -49.1497   -3.7422 C.2         1 MOL       0.2181
      7 C7        -48.1793  -50.5387   -3.6621 C.ar        1 MOL       0.0412
      8 O8        -49.0566  -48.5552   -3.0681 O.2         1 MOL      -0.3816
      9 C9        -47.9079  -51.3337   -4.8003 C.ar        1 MOL      -0.0531
     10 C10       -47.8927  -52.7389   -4.7138 C.ar        1 MOL      -0.0381
     11 C11       -48.3733  -52.6063   -2.3457 C.ar        1 MOL      -0.0381
     12 C12       -48.4261  -51.2055   -2.4358 C.ar        1 MOL      -0.0531
     13 C13       -46.5616  -45.1037   -5.1379 C.2         1 MOL       0.0786
     14 C14       -46.2302  -46.4223   -5.2353 C.2         1 MOL       0.0146
     15 C15       -44.9397  -46.5865   -5.8923 C.3         1 MOL       0.0514
     16 C16       -45.5217  -44.2504   -5.6912 C.3         1 MOL       0.0897
     17 N17       -48.0734  -54.7837   -3.3953 N.pl3       1 MOL      -0.2958
     18 C18       -47.4059  -55.4882   -2.3149 C.3         1 MOL       0.0680
     19 C19       -48.3776  -56.4647   -1.6046 C.3         1 MOL      -0.0118
     20 N20       -49.0512  -57.3633   -2.5940 N.4         1 MOL       0.2359
     21 C21       -49.7198  -56.5872   -3.6838 C.3         1 MOL      -0.0118
     22 C22       -48.7158  -55.6338   -4.3819 C.3         1 MOL       0.0680
     23 C23       -49.9748  -58.3402   -1.9473 C.3         1 MOL      -0.0430
     24 C24       -48.1107  -53.4131   -3.4816 C.ar        1 MOL       0.0460
     25 C25       -43.3348  -44.8462   -6.6247 C.2         1 MOL       0.2222
     26 O26       -43.0596  -43.6540   -6.6503 O.2         1 MOL      -0.3907
     27 C27       -40.5584  -44.9490   -8.8676 C.ar        1 MOL      -0.0555
     28 C28       -40.2219  -44.5438  -10.1728 C.ar        1 MOL      -0.0680
     29 C29       -41.8860  -45.3363   -8.5439 C.ar        1 MOL       0.0044
     30 C31       -41.1991  -44.5044  -11.1786 C.ar        1 MOL      -0.0684
     31 C33       -42.8532  -45.3229   -9.5805 C.ar        1 MOL      -0.0555
     32 C20       -42.2952  -45.7387   -7.1556 C.3         1 MOL       0.1804
     33 C35       -42.5114  -44.9090  -10.8828 C.ar        1 MOL      -0.0680
     34 C36       -41.0817  -46.7691   -5.2628 C.3         1 MOL       0.0424
     35 O34       -41.1681  -45.7202   -6.2447 O.3         1 MOL      -0.3473
     36 H1        -48.2290  -44.1872   -4.3342 H           1 MOL       0.2389
     37 H2        -46.6303  -48.9882   -4.8935 H           1 MOL       0.2188
     38 H3        -47.7315  -50.8932   -5.7106 H           1 MOL       0.0636
     39 H4        -47.6605  -53.2661   -5.5600 H           1 MOL       0.0530
     40 H5        -48.5820  -53.0399   -1.4437 H           1 MOL       0.0530
     41 H6        -48.6408  -50.6704   -1.5908 H           1 MOL       0.0636
     42 H7        -44.2569  -47.1127   -5.2222 H           1 MOL       0.0576
     43 H8        -45.0624  -47.1371   -6.8290 H           1 MOL       0.0576
     44 H9        -45.9077  -43.6696   -6.5335 H           1 MOL       0.0708
     45 H10       -45.1420  -43.5879   -4.9110 H           1 MOL       0.0708
     46 H11       -46.9534  -54.8246   -1.5717 H           1 MOL       0.0569
     47 H12       -46.5882  -56.0712   -2.7497 H           1 MOL       0.0569
     48 H13       -49.1184  -55.8918   -1.0389 H           1 MOL       0.0834
     49 H14       -47.7981  -57.0632   -0.8978 H           1 MOL       0.0834
     50 H15       -48.3033  -57.9038   -3.0397 H           1 MOL       0.2032
     51 H16       -50.5494  -55.9993   -3.2769 H           1 MOL       0.0834
     52 H17       -50.1251  -57.2713   -4.4352 H           1 MOL       0.0834
     53 H18       -47.9641  -56.2251   -4.9039 H           1 MOL       0.0569
     54 H19       -49.2735  -55.0813   -5.1401 H           1 MOL       0.0569
     55 H20       -50.3834  -59.0280   -2.6896 H           1 MOL       0.0778
     56 H21       -50.8044  -57.8333   -1.4494 H           1 MOL       0.0778
     57 H22       -49.4452  -58.9401   -1.2062 H           1 MOL       0.0778
     58 H23       -39.8215  -44.9510   -8.1585 H           1 MOL       0.0562
     59 H24       -39.2655  -44.2617  -10.3838 H           1 MOL       0.0600
     60 H25       -40.9531  -44.1995  -12.1246 H           1 MOL       0.0561
     61 H26       -43.8217  -45.6059   -9.3910 H           1 MOL       0.0562
     62 H27       -42.6706  -46.7590   -7.2533 H           1 MOL       0.1000
     63 H28       -43.2244  -44.8901  -11.6121 H           1 MOL       0.0600
     64 H29       -40.1795  -46.6150   -4.6722 H           1 MOL       0.0528
     65 H30       -41.0076  -47.7496   -5.7371 H           1 MOL       0.0528
     66 H31       -41.9387  -46.7516   -4.5893 H           1 MOL       0.0528
@<TRIPOS>BOND
     1     1    15   1
     2     1    16   1
     3    25     1  am
     4     2     4   1
     5    13     2   1
     6     3     4   2
     7     3     5   1
     8    14     3   1
     9     5     6  am
    10     6     7   1
    11     6     8   2
    12     7     9  ar
    13     7    12  ar
    14     9    10  ar
    15    10    24  ar
    16    12    11  ar
    17    11    24  ar
    18    13    14   2
    19    16    13   1
    20    15    14   1
    21    17    18   1
    22    17    22   1
    23    24    17   1
    24    18    19   1
    25    19    20   1
    26    21    20   1
    27    20    23   1
    28    22    21   1
    29    25    26   2
    30    32    25   1
    31    27    28  ar
    32    29    27  ar
    33    28    30  ar
    34    29    31  ar
    35    29    32   1
    36    30    33  ar
    37    31    33  ar
    38    32    35   1
    39    35    34   1
    40     2    36   1
    41     5    37   1
    42     9    38   1
    43    10    39   1
    44    11    40   1
    45    12    41   1
    46    15    42   1
    47    15    43   1
    48    16    44   1
    49    16    45   1
    50    18    46   1
    51    18    47   1
    52    19    48   1
    53    19    49   1
    54    20    50   1
    55    21    51   1
    56    21    52   1
    57    22    53   1
    58    22    54   1
    59    23    55   1
    60    23    56   1
    61    23    57   1
    62    27    58   1
    63    28    59   1
    64    30    60   1
    65    31    61   1
    66    32    62   1
    67    33    63   1
    68    34    64   1
    69    34    65   1
    70    34    66   1
@<TRIPOS>SUBSTRUCTURE
     1  MOL      3

