@<TRIPOS>MOLECULE
2v7a_ligand_072
    66    70
SMALL
GAST_HUCK
****
This file was generated by PARSER (from files_GN.cpp)

@<TRIPOS>ATOM
      1 N1        -46.6410  -44.6837   -1.8325 N.am        1 MOL      -0.2534
      2 N2        -45.7880  -45.0834    1.6416 N.pl3       1 MOL      -0.2433
      3 C3        -47.3222  -46.5699    1.2427 C.2         1 MOL       0.1027
      4 N4        -46.4815  -46.0492    2.1661 N.2         1 MOL      -0.2404
      5 N5        -48.1456  -47.5993    1.5673 N.am        1 MOL      -0.2391
      6 C6        -49.0580  -48.2307    0.8312 C.2         1 MOL       0.2181
      7 C7        -49.8046  -49.3073    1.3390 C.ar        1 MOL       0.0412
      8 O8        -49.2851  -47.8520   -0.3109 O.2         1 MOL      -0.3816
      9 C9        -51.0606  -49.6542    0.7800 C.ar        1 MOL      -0.0531
     10 C10       -51.8082  -50.7448    1.2624 C.ar        1 MOL      -0.0381
     11 C11       -50.1028  -51.1875    2.9056 C.ar        1 MOL      -0.0381
     12 C12       -49.3434  -50.1072    2.4135 C.ar        1 MOL      -0.0531
     13 C13       -46.1284  -44.9398    0.3568 C.2         1 MOL       0.0786
     14 C14       -47.0844  -45.8649    0.0612 C.2         1 MOL       0.0146
     15 C15       -47.4654  -45.7645   -1.3439 C.3         1 MOL       0.0514
     16 C16       -45.7834  -44.1315   -0.7978 C.3         1 MOL       0.0897
     17 N17       -52.0932  -52.6089    2.8206 N.pl3       1 MOL      -0.2958
     18 C18       -52.9303  -53.4416    1.9711 C.3         1 MOL       0.0680
     19 C19       -54.4010  -53.3901    2.4496 C.3         1 MOL      -0.0118
     20 N20       -54.4881  -53.7768    3.8905 N.4         1 MOL       0.2359
     21 C21       -53.5921  -52.9402    4.7461 C.3         1 MOL      -0.0118
     22 C22       -52.1280  -52.9757    4.2285 C.3         1 MOL       0.0680
     23 C23       -55.8935  -53.8052    4.3812 C.3         1 MOL      -0.0430
     24 C24       -51.3547  -51.5452    2.3415 C.ar        1 MOL       0.0460
     25 C25       -46.6089  -44.2275   -3.0972 C.2         1 MOL       0.2222
     26 O26       -45.9152  -43.2365   -3.3099 O.2         1 MOL      -0.3907
     27 C27       -45.8075  -46.7119   -5.0525 C.ar        1 MOL      -0.0555
     28 C28       -44.8173  -47.2635   -5.8873 C.ar        1 MOL      -0.0680
     29 C29       -46.2186  -45.3637   -5.1987 C.ar        1 MOL       0.0044
     30 C31       -44.2005  -46.4682   -6.8686 C.ar        1 MOL      -0.0684
     31 C33       -45.5788  -44.5777   -6.1920 C.ar        1 MOL      -0.0555
     32 C20       -47.2625  -44.7654   -4.3036 C.3         1 MOL       0.1804
     33 C35       -44.5765  -45.1222   -7.0166 C.ar        1 MOL      -0.0680
     34 C36       -49.6703  -45.2522   -4.0277 C.3         1 MOL       0.0424
     35 O34       -48.3181  -45.7398   -4.1086 O.3         1 MOL      -0.3473
     36 H1        -45.0991  -44.5748    2.0959 H           1 MOL       0.2389
     37 H2        -48.0606  -47.9049    2.4828 H           1 MOL       0.2188
     38 H3        -51.4640  -49.0967    0.0225 H           1 MOL       0.0636
     39 H4        -52.7265  -50.9100    0.8449 H           1 MOL       0.0530
     40 H5        -49.6919  -51.7560    3.6496 H           1 MOL       0.0530
     41 H6        -48.4273  -49.9342    2.8352 H           1 MOL       0.0636
     42 H7        -47.2450  -46.7031   -1.8571 H           1 MOL       0.0576
     43 H8        -48.5260  -45.5160   -1.4025 H           1 MOL       0.0576
     44 H9        -46.0000  -43.0775   -0.6024 H           1 MOL       0.0708
     45 H10       -44.7262  -44.2653   -1.0425 H           1 MOL       0.0708
     46 H11       -52.5776  -54.4753    2.0423 H           1 MOL       0.0569
     47 H12       -52.8869  -53.1853    0.9111 H           1 MOL       0.0569
     48 H13       -54.9898  -54.0813    1.8403 H           1 MOL       0.0834
     49 H14       -54.7929  -52.3801    2.2957 H           1 MOL       0.0834
     50 H15       -54.1396  -54.7355    3.9583 H           1 MOL       0.2032
     51 H16       -53.6054  -53.3112    5.7744 H           1 MOL       0.0834
     52 H17       -53.9393  -51.9022    4.7564 H           1 MOL       0.0834
     53 H18       -51.5507  -52.3073    4.8704 H           1 MOL       0.0569
     54 H19       -51.7216  -53.9837    4.3528 H           1 MOL       0.0569
     55 H20       -56.4859  -54.5028    3.7863 H           1 MOL       0.0778
     56 H21       -56.3545  -52.8169    4.3213 H           1 MOL       0.0778
     57 H22       -55.9307  -54.1454    5.4173 H           1 MOL       0.0778
     58 H23       -46.2307  -47.3053   -4.3352 H           1 MOL       0.0562
     59 H24       -44.5369  -48.2401   -5.7715 H           1 MOL       0.0600
     60 H25       -43.4759  -46.8667   -7.4691 H           1 MOL       0.0561
     61 H26       -45.8281  -43.5921   -6.3131 H           1 MOL       0.0562
     62 H27       -47.6977  -43.9116   -4.8390 H           1 MOL       0.1000
     63 H28       -44.1146  -44.5373   -7.7169 H           1 MOL       0.0600
     64 H29       -50.3232  -46.0876   -3.7736 H           1 MOL       0.0528
     65 H30       -49.9939  -44.8397   -4.9857 H           1 MOL       0.0528
     66 H31       -49.7640  -44.4873   -3.2562 H           1 MOL       0.0528
@<TRIPOS>BOND
     1     1    15   1
     2     1    16   1
     3    25     1  am
     4     2     4   1
     5    13     2   1
     6     3     4   2
     7     3     5   1
     8    14     3   1
     9     5     6  am
    10     6     7   1
    11     6     8   2
    12     7     9  ar
    13     7    12  ar
    14     9    10  ar
    15    10    24  ar
    16    12    11  ar
    17    11    24  ar
    18    13    14   2
    19    16    13   1
    20    15    14   1
    21    17    18   1
    22    17    22   1
    23    24    17   1
    24    18    19   1
    25    19    20   1
    26    21    20   1
    27    20    23   1
    28    22    21   1
    29    25    26   2
    30    32    25   1
    31    27    28  ar
    32    29    27  ar
    33    28    30  ar
    34    29    31  ar
    35    29    32   1
    36    30    33  ar
    37    31    33  ar
    38    32    35   1
    39    35    34   1
    40     2    36   1
    41     5    37   1
    42     9    38   1
    43    10    39   1
    44    11    40   1
    45    12    41   1
    46    15    42   1
    47    15    43   1
    48    16    44   1
    49    16    45   1
    50    18    46   1
    51    18    47   1
    52    19    48   1
    53    19    49   1
    54    20    50   1
    55    21    51   1
    56    21    52   1
    57    22    53   1
    58    22    54   1
    59    23    55   1
    60    23    56   1
    61    23    57   1
    62    27    58   1
    63    28    59   1
    64    30    60   1
    65    31    61   1
    66    32    62   1
    67    33    63   1
    68    34    64   1
    69    34    65   1
    70    34    66   1
@<TRIPOS>SUBSTRUCTURE
     1  MOL      3

