@<TRIPOS>MOLECULE
2v7a_ligand_013
    66    70
SMALL
GAST_HUCK
****
This file was generated by PARSER (from files_GN.cpp)

@<TRIPOS>ATOM
      1 N1        -43.3626  -45.9076   -7.6779 N.am        1 MOL      -0.2534
      2 N2        -45.4395  -44.3377   -5.2037 N.pl3       1 MOL      -0.2433
      3 C3        -45.7915  -46.4701   -5.0408 C.2         1 MOL       0.1027
      4 N4        -46.0500  -45.2497   -4.5063 N.2         1 MOL      -0.2404
      5 N5        -46.1370  -47.7061   -4.6062 N.am        1 MOL      -0.2391
      6 C6        -46.7045  -48.0332   -3.4487 C.2         1 MOL       0.2181
      7 C7        -47.0765  -49.3522   -3.1736 C.ar        1 MOL       0.0412
      8 O8        -46.8526  -47.1737   -2.5846 O.2         1 MOL      -0.3816
      9 C9        -47.1099  -49.8464   -1.8498 C.ar        1 MOL      -0.0531
     10 C10       -47.4574  -51.1839   -1.5750 C.ar        1 MOL      -0.0381
     11 C11       -47.8128  -51.5714   -3.9337 C.ar        1 MOL      -0.0381
     12 C12       -47.4272  -50.2497   -4.2138 C.ar        1 MOL      -0.0531
     13 C13       -44.7518  -44.9189   -6.1956 C.2         1 MOL       0.0786
     14 C14       -44.9863  -46.2534   -6.1471 C.2         1 MOL       0.0146
     15 C15       -44.1525  -46.9751   -7.0963 C.3         1 MOL       0.0514
     16 C16       -43.7667  -44.6011   -7.2077 C.3         1 MOL       0.0897
     17 N17       -48.2297  -53.3625   -2.3385 N.pl3       1 MOL      -0.2958
     18 C18       -47.5079  -54.2153   -1.4093 C.3         1 MOL       0.0680
     19 C19       -47.1236  -55.5470   -2.1145 C.3         1 MOL      -0.0118
     20 N20       -48.2829  -56.2252   -2.7714 N.4         1 MOL       0.2359
     21 C21       -49.0301  -55.2872   -3.6665 C.3         1 MOL      -0.0118
     22 C22       -49.4023  -53.9627   -2.9514 C.3         1 MOL       0.0680
     23 C23       -49.1482  -56.9858   -1.8286 C.3         1 MOL      -0.0430
     24 C24       -47.8412  -52.0719   -2.6080 C.ar        1 MOL       0.0460
     25 C25       -42.3249  -46.0704   -8.5162 C.2         1 MOL       0.2222
     26 O26       -41.6927  -45.0735   -8.8522 O.2         1 MOL      -0.3907
     27 C27       -42.4543  -49.6438   -8.2462 C.ar        1 MOL      -0.0555
     28 C28       -42.3942  -50.6095   -7.2208 C.ar        1 MOL      -0.0680
     29 C29       -41.7267  -48.4288   -8.1507 C.ar        1 MOL       0.0044
     30 C31       -41.5799  -50.3910   -6.0949 C.ar        1 MOL      -0.0684
     31 C33       -40.8801  -48.2524   -7.0267 C.ar        1 MOL      -0.0555
     32 C20       -41.8738  -47.3206   -9.1353 C.3         1 MOL       0.1804
     33 C35       -40.8136  -49.2154   -6.0026 C.ar        1 MOL      -0.0680
     34 C36       -42.6114  -46.8742  -11.4470 C.3         1 MOL       0.0424
     35 O34       -42.7308  -47.6707  -10.2421 O.3         1 MOL      -0.3473
     36 H1        -45.3975  -43.3904   -4.9875 H           1 MOL       0.2389
     37 H2        -45.8903  -48.4414   -5.1952 H           1 MOL       0.2188
     38 H3        -46.8683  -49.2398   -1.0662 H           1 MOL       0.0636
     39 H4        -47.4869  -51.4827   -0.5979 H           1 MOL       0.0530
     40 H5        -48.0264  -52.1893   -4.7206 H           1 MOL       0.0530
     41 H6        -47.4193  -49.9515   -5.1930 H           1 MOL       0.0636
     42 H7        -43.5566  -47.6745   -6.5089 H           1 MOL       0.0576
     43 H8        -44.7657  -47.4979   -7.8347 H           1 MOL       0.0576
     44 H9        -44.2181  -44.0255   -8.0140 H           1 MOL       0.0708
     45 H10       -42.9368  -44.0603   -6.7537 H           1 MOL       0.0708
     46 H11       -48.1362  -54.4155   -0.5393 H           1 MOL       0.0569
     47 H12       -46.5800  -53.7639   -1.0466 H           1 MOL       0.0569
     48 H13       -46.6434  -56.2131   -1.3927 H           1 MOL       0.0834
     49 H14       -46.3788  -55.3218   -2.8842 H           1 MOL       0.0834
     50 H15       -47.8728  -56.9237   -3.3897 H           1 MOL       0.2032
     51 H16       -49.9397  -55.7518   -4.0564 H           1 MOL       0.0834
     52 H17       -48.3989  -55.0475   -4.5286 H           1 MOL       0.0834
     53 H18       -49.9197  -53.3066   -3.6574 H           1 MOL       0.0569
     54 H19       -50.1272  -54.1736   -2.1623 H           1 MOL       0.0569
     55 H20       -49.9377  -57.5039   -2.3721 H           1 MOL       0.0778
     56 H21       -49.6083  -56.3396   -1.0799 H           1 MOL       0.0778
     57 H22       -48.5560  -57.7425   -1.3150 H           1 MOL       0.0778
     58 H23       -43.0725  -49.8235   -9.0369 H           1 MOL       0.0562
     59 H24       -42.9522  -51.4702   -7.2947 H           1 MOL       0.0600
     60 H25       -41.5449  -51.0876   -5.3398 H           1 MOL       0.0561
     61 H26       -40.3295  -47.3984   -6.9174 H           1 MOL       0.0562
     62 H27       -40.8695  -47.1993   -9.5547 H           1 MOL       0.1000
     63 H28       -40.2161  -49.0662   -5.1846 H           1 MOL       0.0600
     64 H29       -43.0458  -47.4378  -12.2794 H           1 MOL       0.0528
     65 H30       -41.5589  -46.6459  -11.6931 H           1 MOL       0.0528
     66 H31       -43.1662  -45.9286  -11.3323 H           1 MOL       0.0528
@<TRIPOS>BOND
     1     1    15   1
     2     1    16   1
     3    25     1  am
     4     2     4   1
     5    13     2   1
     6     3     4   2
     7     3     5   1
     8    14     3   1
     9     5     6  am
    10     6     7   1
    11     6     8   2
    12     7     9  ar
    13     7    12  ar
    14     9    10  ar
    15    10    24  ar
    16    12    11  ar
    17    11    24  ar
    18    13    14   2
    19    16    13   1
    20    15    14   1
    21    17    18   1
    22    17    22   1
    23    24    17   1
    24    18    19   1
    25    19    20   1
    26    21    20   1
    27    20    23   1
    28    22    21   1
    29    25    26   2
    30    32    25   1
    31    27    28  ar
    32    29    27  ar
    33    28    30  ar
    34    29    31  ar
    35    29    32   1
    36    30    33  ar
    37    31    33  ar
    38    32    35   1
    39    35    34   1
    40     2    36   1
    41     5    37   1
    42     9    38   1
    43    10    39   1
    44    11    40   1
    45    12    41   1
    46    15    42   1
    47    15    43   1
    48    16    44   1
    49    16    45   1
    50    18    46   1
    51    18    47   1
    52    19    48   1
    53    19    49   1
    54    20    50   1
    55    21    51   1
    56    21    52   1
    57    22    53   1
    58    22    54   1
    59    23    55   1
    60    23    56   1
    61    23    57   1
    62    27    58   1
    63    28    59   1
    64    30    60   1
    65    31    61   1
    66    32    62   1
    67    33    63   1
    68    34    64   1
    69    34    65   1
    70    34    66   1
@<TRIPOS>SUBSTRUCTURE
     1  MOL      3

