@<TRIPOS>MOLECULE
2v7a_ligand_027
    66    70
SMALL
GAST_HUCK
****
This file was generated by PARSER (from files_GN.cpp)

@<TRIPOS>ATOM
      1 N1        -49.4291  -44.0731    0.1358 N.am        1 MOL      -0.2534
      2 N2        -45.9062  -44.7182    0.4486 N.pl3       1 MOL      -0.2433
      3 C3        -46.7505  -46.4468   -0.5516 C.2         1 MOL       0.1027
      4 N4        -45.6210  -45.8737   -0.0714 N.2         1 MOL      -0.2404
      5 N5        -46.9309  -47.6297   -1.1794 N.am        1 MOL      -0.2391
      6 C6        -45.9949  -48.4706   -1.5969 C.2         1 MOL       0.2181
      7 C7        -46.3708  -49.7086   -2.0813 C.ar        1 MOL       0.0412
      8 O8        -44.7950  -48.2241   -1.5299 O.2         1 MOL      -0.3816
      9 C9        -45.9595  -50.1650   -3.3558 C.ar        1 MOL      -0.0531
     10 C10       -46.2743  -51.4618   -3.7893 C.ar        1 MOL      -0.0381
     11 C11       -47.3527  -51.9059   -1.6576 C.ar        1 MOL      -0.0381
     12 C12       -47.1215  -50.5824   -1.2648 C.ar        1 MOL      -0.0531
     13 C13       -47.2195  -44.4829    0.3422 C.2         1 MOL       0.0786
     14 C14       -47.7824  -45.5562   -0.2797 C.2         1 MOL       0.0146
     15 C15       -49.2189  -45.3799   -0.4541 C.3         1 MOL       0.0514
     16 C16       -48.2114  -43.4725    0.6504 C.3         1 MOL       0.0897
     17 N17       -47.1110  -53.6806   -3.2837 N.pl3       1 MOL      -0.2958
     18 C18       -47.8888  -54.0551   -4.4454 C.3         1 MOL       0.0680
     19 C19       -48.9884  -55.0695   -4.0286 C.3         1 MOL      -0.0118
     20 N20       -48.3985  -56.2120   -3.2653 N.4         1 MOL       0.2359
     21 C21       -47.6206  -55.7576   -2.0684 C.3         1 MOL      -0.0118
     22 C22       -46.5255  -54.7581   -2.5107 C.3         1 MOL       0.0680
     23 C23       -49.3975  -57.2619   -2.9106 C.3         1 MOL      -0.0430
     24 C24       -46.9365  -52.3744   -2.9289 C.ar        1 MOL       0.0460
     25 C25       -50.6182  -43.4539    0.2507 C.2         1 MOL       0.2222
     26 O26       -50.6560  -42.3647    0.8174 O.2         1 MOL      -0.3907
     27 C27       -51.9524  -44.9990   -2.5694 C.ar        1 MOL      -0.0555
     28 C28       -52.1190  -44.8755   -3.9616 C.ar        1 MOL      -0.0680
     29 C29       -52.0168  -43.8627   -1.7236 C.ar        1 MOL       0.0044
     30 C31       -52.3397  -43.6121   -4.5381 C.ar        1 MOL      -0.0684
     31 C33       -52.2253  -42.5981   -2.3286 C.ar        1 MOL      -0.0555
     32 C20       -51.9146  -43.9509   -0.2309 C.3         1 MOL       0.1804
     33 C35       -52.3861  -42.4684   -3.7213 C.ar        1 MOL      -0.0680
     34 C36       -53.4890  -45.7153    0.4651 C.3         1 MOL       0.0424
     35 O34       -52.1242  -45.2704    0.3352 O.3         1 MOL      -0.3473
     36 H1        -45.2558  -44.1228    0.8494 H           1 MOL       0.2389
     37 H2        -47.8546  -47.8816   -1.3505 H           1 MOL       0.2188
     38 H3        -45.4229  -49.5543   -3.9781 H           1 MOL       0.0636
     39 H4        -45.9493  -51.7703   -4.7111 H           1 MOL       0.0530
     40 H5        -47.8698  -52.5245   -1.0244 H           1 MOL       0.0530
     41 H6        -47.4511  -50.2891   -0.3419 H           1 MOL       0.0636
     42 H7        -49.4739  -45.3944   -1.5169 H           1 MOL       0.0576
     43 H8        -49.7583  -46.1677    0.0824 H           1 MOL       0.0576
     44 H9        -48.2486  -43.3057    1.7294 H           1 MOL       0.0708
     45 H10       -47.9667  -42.5454    0.1318 H           1 MOL       0.0708
     46 H11       -47.2349  -54.5086   -5.1932 H           1 MOL       0.0569
     47 H12       -48.3845  -53.2039   -4.9155 H           1 MOL       0.0569
     48 H13       -49.4704  -55.4370   -4.9375 H           1 MOL       0.0834
     49 H14       -49.7440  -54.5538   -3.4224 H           1 MOL       0.0834
     50 H15       -47.7337  -56.6484   -3.9073 H           1 MOL       0.2032
     51 H16       -47.1300  -56.6078   -1.5803 H           1 MOL       0.0834
     52 H17       -48.2798  -55.2819   -1.3362 H           1 MOL       0.0834
     53 H18       -45.9813  -54.4188   -1.6254 H           1 MOL       0.0569
     54 H19       -45.8048  -55.2861   -3.1391 H           1 MOL       0.0569
     55 H20       -49.9098  -57.6167   -3.8080 H           1 MOL       0.0778
     56 H21       -50.1442  -56.8809   -2.2061 H           1 MOL       0.0778
     57 H22       -48.8932  -58.1204   -2.4564 H           1 MOL       0.0778
     58 H23       -51.8009  -45.9296   -2.1762 H           1 MOL       0.0562
     59 H24       -52.0780  -45.7079   -4.5585 H           1 MOL       0.0600
     60 H25       -52.4580  -43.5227   -5.5527 H           1 MOL       0.0561
     61 H26       -52.2672  -41.7487   -1.7559 H           1 MOL       0.0562
     62 H27       -52.7092  -43.2888    0.1521 H           1 MOL       0.1000
     63 H28       -52.5431  -41.5493   -4.1422 H           1 MOL       0.0600
     64 H29       -53.4892  -46.7418    0.8414 H           1 MOL       0.0528
     65 H30       -54.0139  -45.6968   -0.4966 H           1 MOL       0.0528
     66 H31       -54.0275  -45.0840    1.1843 H           1 MOL       0.0528
@<TRIPOS>BOND
     1     1    15   1
     2     1    16   1
     3    25     1  am
     4     2     4   1
     5    13     2   1
     6     3     4   2
     7     3     5   1
     8    14     3   1
     9     5     6  am
    10     6     7   1
    11     6     8   2
    12     7     9  ar
    13     7    12  ar
    14     9    10  ar
    15    10    24  ar
    16    12    11  ar
    17    11    24  ar
    18    13    14   2
    19    16    13   1
    20    15    14   1
    21    17    18   1
    22    17    22   1
    23    24    17   1
    24    18    19   1
    25    19    20   1
    26    21    20   1
    27    20    23   1
    28    22    21   1
    29    25    26   2
    30    32    25   1
    31    27    28  ar
    32    29    27  ar
    33    28    30  ar
    34    29    31  ar
    35    29    32   1
    36    30    33  ar
    37    31    33  ar
    38    32    35   1
    39    35    34   1
    40     2    36   1
    41     5    37   1
    42     9    38   1
    43    10    39   1
    44    11    40   1
    45    12    41   1
    46    15    42   1
    47    15    43   1
    48    16    44   1
    49    16    45   1
    50    18    46   1
    51    18    47   1
    52    19    48   1
    53    19    49   1
    54    20    50   1
    55    21    51   1
    56    21    52   1
    57    22    53   1
    58    22    54   1
    59    23    55   1
    60    23    56   1
    61    23    57   1
    62    27    58   1
    63    28    59   1
    64    30    60   1
    65    31    61   1
    66    32    62   1
    67    33    63   1
    68    34    64   1
    69    34    65   1
    70    34    66   1
@<TRIPOS>SUBSTRUCTURE
     1  MOL      3

