@<TRIPOS>MOLECULE
2v7a_ligand_040
    66    70
SMALL
GAST_HUCK
****
This file was generated by PARSER (from files_GN.cpp)

@<TRIPOS>ATOM
      1 N1        -43.8561  -45.6007   -6.2841 N.am        1 MOL      -0.2534
      2 N2        -47.2652  -45.0962   -5.2245 N.pl3       1 MOL      -0.2433
      3 C3        -46.7830  -47.1543   -4.7148 C.2         1 MOL       0.1027
      4 N4        -47.7272  -46.1901   -4.6897 N.2         1 MOL      -0.2404
      5 N5        -47.0769  -48.3974   -4.2580 N.am        1 MOL      -0.2391
      6 C6        -46.3626  -49.5195   -4.2860 C.2         1 MOL       0.2181
      7 C7        -46.8726  -50.7308   -3.7714 C.ar        1 MOL       0.0412
      8 O8        -45.2586  -49.5185   -4.8112 O.2         1 MOL      -0.3816
      9 C9        -48.0382  -50.7609   -2.9685 C.ar        1 MOL      -0.0531
     10 C10       -48.5731  -51.9789   -2.4996 C.ar        1 MOL      -0.0381
     11 C11       -46.7585  -53.1839   -3.5373 C.ar        1 MOL      -0.0381
     12 C12       -46.2400  -51.9691   -4.0375 C.ar        1 MOL      -0.0531
     13 C13       -46.0021  -45.3059   -5.6138 C.2         1 MOL       0.0786
     14 C14       -45.6559  -46.5835   -5.2923 C.2         1 MOL       0.0146
     15 C15       -44.2839  -46.8557   -5.6990 C.3         1 MOL       0.0514
     16 C16       -44.9142  -44.6062   -6.2807 C.3         1 MOL       0.0897
     17 N17       -48.4860  -54.3972   -2.3176 N.pl3       1 MOL      -0.2958
     18 C18       -49.9008  -54.7020   -2.4196 C.3         1 MOL       0.0680
     19 C19       -50.5037  -54.8774   -1.0058 C.3         1 MOL      -0.0118
     20 N20       -49.7350  -55.8993   -0.2357 N.4         1 MOL       0.2359
     21 C21       -48.2659  -55.5970   -0.1953 C.3         1 MOL      -0.0118
     22 C22       -47.6932  -55.3887   -1.6216 C.3         1 MOL       0.0680
     23 C23       -50.3108  -56.1293    1.1201 C.3         1 MOL      -0.0430
     24 C24       -47.9523  -53.2137   -2.7800 C.ar        1 MOL       0.0460
     25 C25       -42.6327  -45.3456   -6.7874 C.2         1 MOL       0.2222
     26 O26       -42.4092  -44.2230   -7.2166 O.2         1 MOL      -0.3907
     27 C27       -41.3976  -48.6071   -5.8350 C.ar        1 MOL      -0.0555
     28 C28       -41.7244  -49.9690   -5.9543 C.ar        1 MOL      -0.0680
     29 C29       -41.6830  -47.6905   -6.8796 C.ar        1 MOL       0.0044
     30 C31       -42.3253  -50.4475   -7.1301 C.ar        1 MOL      -0.0684
     31 C33       -42.2588  -48.1971   -8.0686 C.ar        1 MOL      -0.0555
     32 C20       -41.4449  -46.2205   -6.6808 C.3         1 MOL       0.1804
     33 C35       -42.5816  -49.5649   -8.1936 C.ar        1 MOL      -0.0680
     34 C36       -40.3520  -45.6131   -8.8633 C.3         1 MOL       0.0424
     35 O34       -40.2877  -45.7847   -7.4353 O.3         1 MOL      -0.3473
     36 H1        -47.7681  -44.2745   -5.3526 H           1 MOL       0.2389
     37 H2        -47.9707  -48.4755   -3.8981 H           1 MOL       0.2188
     38 H3        -48.5248  -49.9066   -2.6960 H           1 MOL       0.0636
     39 H4        -49.3975  -51.9306   -1.8974 H           1 MOL       0.0530
     40 H5        -46.2799  -54.0487   -3.7993 H           1 MOL       0.0530
     41 H6        -45.3958  -52.0178   -4.6142 H           1 MOL       0.0636
     42 H7        -43.6834  -47.1303   -4.8294 H           1 MOL       0.0576
     43 H8        -44.3067  -47.6575   -6.4415 H           1 MOL       0.0576
     44 H9        -45.2093  -44.3251   -7.2973 H           1 MOL       0.0708
     45 H10       -44.6397  -43.7174   -5.7004 H           1 MOL       0.0708
     46 H11       -50.0198  -55.6359   -2.9719 H           1 MOL       0.0569
     47 H12       -50.4759  -53.9535   -2.9641 H           1 MOL       0.0569
     48 H13       -51.5459  -55.1955   -1.1126 H           1 MOL       0.0834
     49 H14       -50.4953  -53.9144   -0.4848 H           1 MOL       0.0834
     50 H15       -49.8322  -56.7819   -0.7433 H           1 MOL       0.2032
     51 H16       -47.7292  -56.4203    0.2791 H           1 MOL       0.0834
     52 H17       -48.0866  -54.6916    0.3961 H           1 MOL       0.0834
     53 H18       -46.6408  -55.1086   -1.5099 H           1 MOL       0.0569
     54 H19       -47.7191  -56.3362   -2.1737 H           1 MOL       0.0569
     55 H20       -51.3544  -56.4514    1.0361 H           1 MOL       0.0778
     56 H21       -50.2754  -55.2195    1.7250 H           1 MOL       0.0778
     57 H22       -49.7669  -56.9177    1.6422 H           1 MOL       0.0778
     58 H23       -40.9706  -48.2822   -4.9605 H           1 MOL       0.0562
     59 H24       -41.5245  -50.6098   -5.1813 H           1 MOL       0.0600
     60 H25       -42.5686  -51.4333   -7.2131 H           1 MOL       0.0561
     61 H26       -42.4930  -47.5673   -8.8420 H           1 MOL       0.0562
     62 H27       -41.1361  -46.0769   -5.6411 H           1 MOL       0.1000
     63 H28       -43.0167  -49.9101   -9.0522 H           1 MOL       0.0600
     64 H29       -39.4013  -45.1879   -9.1900 H           1 MOL       0.0528
     65 H30       -41.1454  -44.9316   -9.1585 H           1 MOL       0.0528
     66 H31       -40.4946  -46.5674   -9.3638 H           1 MOL       0.0528
@<TRIPOS>BOND
     1     1    15   1
     2     1    16   1
     3    25     1  am
     4     2     4   1
     5    13     2   1
     6     3     4   2
     7     3     5   1
     8    14     3   1
     9     5     6  am
    10     6     7   1
    11     6     8   2
    12     7     9  ar
    13     7    12  ar
    14     9    10  ar
    15    10    24  ar
    16    12    11  ar
    17    11    24  ar
    18    13    14   2
    19    16    13   1
    20    15    14   1
    21    17    18   1
    22    17    22   1
    23    24    17   1
    24    18    19   1
    25    19    20   1
    26    21    20   1
    27    20    23   1
    28    22    21   1
    29    25    26   2
    30    32    25   1
    31    27    28  ar
    32    29    27  ar
    33    28    30  ar
    34    29    31  ar
    35    29    32   1
    36    30    33  ar
    37    31    33  ar
    38    32    35   1
    39    35    34   1
    40     2    36   1
    41     5    37   1
    42     9    38   1
    43    10    39   1
    44    11    40   1
    45    12    41   1
    46    15    42   1
    47    15    43   1
    48    16    44   1
    49    16    45   1
    50    18    46   1
    51    18    47   1
    52    19    48   1
    53    19    49   1
    54    20    50   1
    55    21    51   1
    56    21    52   1
    57    22    53   1
    58    22    54   1
    59    23    55   1
    60    23    56   1
    61    23    57   1
    62    27    58   1
    63    28    59   1
    64    30    60   1
    65    31    61   1
    66    32    62   1
    67    33    63   1
    68    34    64   1
    69    34    65   1
    70    34    66   1
@<TRIPOS>SUBSTRUCTURE
     1  MOL      3

