@<TRIPOS>MOLECULE
2v7a_ligand_006
    66    70
SMALL
GAST_HUCK
****
This file was generated by PARSER (from files_GN.cpp)

@<TRIPOS>ATOM
      1 N1        -45.4443  -45.2610   -5.6293 N.am        1 MOL      -0.2534
      2 N2        -48.2629  -45.0764   -3.4084 N.pl3       1 MOL      -0.2433
      3 C3        -47.8620  -47.1838   -3.7226 C.2         1 MOL       0.1027
      4 N4        -48.6807  -46.2783   -3.1405 N.2         1 MOL      -0.2404
      5 N5        -47.9248  -48.5357   -3.7379 N.am        1 MOL      -0.2391
      6 C6        -48.9051  -49.3019   -3.2849 C.2         1 MOL       0.2181
      7 C7        -48.7980  -50.6891   -3.3662 C.ar        1 MOL       0.0412
      8 O8        -49.9439  -48.8189   -2.8517 O.2         1 MOL      -0.3816
      9 C9        -49.8955  -51.4932   -3.7401 C.ar        1 MOL      -0.0531
     10 C10       -49.7747  -52.8974   -3.8282 C.ar        1 MOL      -0.0381
     11 C11       -47.4732  -52.7419   -3.1059 C.ar        1 MOL      -0.0381
     12 C12       -47.5728  -51.3370   -3.0628 C.ar        1 MOL      -0.0531
     13 C13       -47.1700  -45.1466   -4.1812 C.2         1 MOL       0.0786
     14 C14       -46.8796  -46.4611   -4.3762 C.2         1 MOL       0.0146
     15 C15       -45.7428  -46.6274   -5.2582 C.3         1 MOL       0.0514
     16 C16       -46.2521  -44.2945   -4.9105 C.3         1 MOL       0.0897
     17 N17       -48.4657  -54.9299   -3.4875 N.pl3       1 MOL      -0.2958
     18 C18       -47.7594  -55.6312   -2.4344 C.3         1 MOL       0.0680
     19 C19       -48.6525  -56.7479   -1.8411 C.3         1 MOL      -0.0118
     20 N20       -49.1486  -57.6462   -2.9251 N.4         1 MOL       0.2359
     21 C21       -49.9119  -56.8817   -3.9580 C.3         1 MOL      -0.0118
     22 C22       -49.0315  -55.7516   -4.5422 C.3         1 MOL       0.0680
     23 C23       -49.8929  -58.8242   -2.4084 C.3         1 MOL      -0.0430
     24 C24       -48.5696  -53.5542   -3.4806 C.ar        1 MOL       0.0460
     25 C25       -44.5477  -44.9023   -6.5587 C.2         1 MOL       0.2222
     26 O26       -44.3883  -43.7071   -6.7679 O.2         1 MOL      -0.3907
     27 C27       -41.8278  -46.3789   -6.0955 C.ar        1 MOL      -0.0555
     28 C28       -40.9819  -47.2884   -5.4350 C.ar        1 MOL      -0.0680
     29 C29       -42.9897  -46.8103   -6.7790 C.ar        1 MOL       0.0044
     30 C31       -41.2749  -48.6649   -5.4647 C.ar        1 MOL      -0.0684
     31 C33       -43.2617  -48.2056   -6.7956 C.ar        1 MOL      -0.0555
     32 C20       -43.8442  -45.8005   -7.4815 C.3         1 MOL       0.1804
     33 C35       -42.4290  -49.1177   -6.1223 C.ar        1 MOL      -0.0680
     34 C36       -44.6053  -46.3743   -9.7554 C.3         1 MOL       0.0424
     35 O34       -44.8551  -46.3904   -8.3404 O.3         1 MOL      -0.3473
     36 H1        -48.6984  -44.2551   -3.1251 H           1 MOL       0.2389
     37 H2        -47.1832  -48.9887   -4.1732 H           1 MOL       0.2188
     38 H3        -50.8021  -51.0647   -3.9649 H           1 MOL       0.0636
     39 H4        -50.6056  -53.4388   -4.0802 H           1 MOL       0.0530
     40 H5        -46.5661  -53.1646   -2.8908 H           1 MOL       0.0530
     41 H6        -46.7496  -50.7950   -2.7862 H           1 MOL       0.0636
     42 H7        -44.9161  -47.0900   -4.7131 H           1 MOL       0.0576
     43 H8        -46.0319  -47.2386   -6.1133 H           1 MOL       0.0576
     44 H9        -46.8163  -43.6549   -5.5943 H           1 MOL       0.0708
     45 H10       -45.6513  -43.6893   -4.2259 H           1 MOL       0.0708
     46 H11       -47.4715  -54.9754   -1.6037 H           1 MOL       0.0569
     47 H12       -46.8454  -56.0700   -2.8423 H           1 MOL       0.0569
     48 H13       -49.4946  -56.3006   -1.3044 H           1 MOL       0.0834
     49 H14       -48.0608  -57.3174   -1.1247 H           1 MOL       0.0834
     50 H15       -48.3123  -58.0103   -3.3897 H           1 MOL       0.2032
     51 H16       -50.8185  -56.4474   -3.5272 H           1 MOL       0.0834
     52 H17       -50.2091  -57.5447   -4.7738 H           1 MOL       0.0834
     53 H18       -48.2055  -56.2132   -5.0864 H           1 MOL       0.0569
     54 H19       -49.6073  -55.1857   -5.2782 H           1 MOL       0.0569
     55 H20       -50.1687  -59.4915   -3.2254 H           1 MOL       0.0778
     56 H21       -50.7992  -58.5233   -1.8828 H           1 MOL       0.0778
     57 H22       -49.2685  -59.3965   -1.7214 H           1 MOL       0.0778
     58 H23       -41.5769  -45.3846   -6.0852 H           1 MOL       0.0562
     59 H24       -40.1435  -46.9542   -4.9535 H           1 MOL       0.0600
     60 H25       -40.6554  -49.3317   -4.9959 H           1 MOL       0.0561
     61 H26       -44.1022  -48.5650   -7.2562 H           1 MOL       0.0562
     62 H27       -43.1462  -45.2063   -8.0931 H           1 MOL       0.1000
     63 H28       -42.6431  -50.1226   -6.1425 H           1 MOL       0.0600
     64 H29       -45.4101  -46.9148  -10.2597 H           1 MOL       0.0528
     65 H30       -43.6563  -46.8608   -9.9963 H           1 MOL       0.0528
     66 H31       -44.5934  -45.3496  -10.1397 H           1 MOL       0.0528
@<TRIPOS>BOND
     1     1    15   1
     2     1    16   1
     3    25     1  am
     4     2     4   1
     5    13     2   1
     6     3     4   2
     7     3     5   1
     8    14     3   1
     9     5     6  am
    10     6     7   1
    11     6     8   2
    12     7     9  ar
    13     7    12  ar
    14     9    10  ar
    15    10    24  ar
    16    12    11  ar
    17    11    24  ar
    18    13    14   2
    19    16    13   1
    20    15    14   1
    21    17    18   1
    22    17    22   1
    23    24    17   1
    24    18    19   1
    25    19    20   1
    26    21    20   1
    27    20    23   1
    28    22    21   1
    29    25    26   2
    30    32    25   1
    31    27    28  ar
    32    29    27  ar
    33    28    30  ar
    34    29    31  ar
    35    29    32   1
    36    30    33  ar
    37    31    33  ar
    38    32    35   1
    39    35    34   1
    40     2    36   1
    41     5    37   1
    42     9    38   1
    43    10    39   1
    44    11    40   1
    45    12    41   1
    46    15    42   1
    47    15    43   1
    48    16    44   1
    49    16    45   1
    50    18    46   1
    51    18    47   1
    52    19    48   1
    53    19    49   1
    54    20    50   1
    55    21    51   1
    56    21    52   1
    57    22    53   1
    58    22    54   1
    59    23    55   1
    60    23    56   1
    61    23    57   1
    62    27    58   1
    63    28    59   1
    64    30    60   1
    65    31    61   1
    66    32    62   1
    67    33    63   1
    68    34    64   1
    69    34    65   1
    70    34    66   1
@<TRIPOS>SUBSTRUCTURE
     1  MOL      3

