@<TRIPOS>MOLECULE
2v7a_ligand_018
    66    70
SMALL
GAST_HUCK
****
This file was generated by PARSER (from files_GN.cpp)

@<TRIPOS>ATOM
      1 N1        -48.6633  -43.3405   -0.5584 N.am        1 MOL      -0.2534
      2 N2        -51.7905  -44.8564   -1.4769 N.pl3       1 MOL      -0.2433
      3 C3        -50.2923  -46.3885   -1.8027 C.2         1 MOL       0.1027
      4 N4        -51.6079  -46.0908   -1.8356 N.2         1 MOL      -0.2404
      5 N5        -49.8825  -47.6403   -2.1100 N.am        1 MOL      -0.2391
      6 C6        -48.6501  -48.1247   -2.2188 C.2         1 MOL       0.2181
      7 C7        -48.4423  -49.4825   -2.4847 C.ar        1 MOL       0.0412
      8 O8        -47.6826  -47.3772   -2.1508 O.2         1 MOL      -0.3816
      9 C9        -47.3110  -49.9117   -3.2247 C.ar        1 MOL      -0.0531
     10 C10       -47.0870  -51.2740   -3.4887 C.ar        1 MOL      -0.0381
     11 C11       -49.1098  -51.8428   -2.2656 C.ar        1 MOL      -0.0381
     12 C12       -49.3366  -50.4774   -2.0097 C.ar        1 MOL      -0.0531
     13 C13       -50.6095  -44.3019   -1.1809 C.2         1 MOL       0.0786
     14 C14       -49.6330  -45.2316   -1.3815 C.2         1 MOL       0.0146
     15 C15       -48.3331  -44.6718   -1.0221 C.3         1 MOL       0.0514
     16 C16       -50.0790  -43.0504   -0.6713 C.3         1 MOL       0.0897
     17 N17       -47.7660  -53.5602   -3.2841 N.pl3       1 MOL      -0.2958
     18 C18       -47.0264  -54.3947   -2.3682 C.3         1 MOL       0.0680
     19 C19       -47.8913  -55.6092   -1.9478 C.3         1 MOL      -0.0118
     20 N20       -48.4656  -56.3040   -3.1423 N.4         1 MOL       0.2359
     21 C21       -49.2281  -55.3770   -4.0342 C.3         1 MOL      -0.0118
     22 C22       -48.3561  -54.1683   -4.4515 C.3         1 MOL       0.0680
     23 C23       -49.2660  -57.4979   -2.7612 C.3         1 MOL      -0.0430
     24 C24       -47.9834  -52.2487   -3.0098 C.ar        1 MOL       0.0460
     25 C25       -47.7888  -42.4598   -0.0394 C.2         1 MOL       0.2222
     26 O26       -48.2391  -41.4141    0.4165 O.2         1 MOL      -0.3907
     27 C27       -45.5813  -40.2750   -0.3424 C.ar        1 MOL      -0.0555
     28 C28       -44.7661  -39.3521   -1.0214 C.ar        1 MOL      -0.0680
     29 C29       -45.4934  -41.6668   -0.6077 C.ar        1 MOL       0.0044
     30 C31       -43.8181  -39.8058   -1.9514 C.ar        1 MOL      -0.0684
     31 C33       -44.5169  -42.0999   -1.5425 C.ar        1 MOL      -0.0555
     32 C20       -46.3380  -42.6663    0.1244 C.3         1 MOL       0.1804
     33 C35       -43.6815  -41.1800   -2.2009 C.ar        1 MOL      -0.0680
     34 C36       -46.1450  -43.7918    2.2960 C.3         1 MOL       0.0424
     35 O34       -45.9462  -42.5993    1.5154 O.3         1 MOL      -0.3473
     36 H1        -52.6540  -44.4178   -1.4073 H           1 MOL       0.2389
     37 H2        -50.6011  -48.2682   -2.2892 H           1 MOL       0.2188
     38 H3        -46.6468  -49.2300   -3.6005 H           1 MOL       0.0636
     39 H4        -46.2682  -51.5513   -4.0342 H           1 MOL       0.0530
     40 H5        -49.7678  -52.5394   -1.9063 H           1 MOL       0.0530
     41 H6        -50.1560  -50.2217   -1.4508 H           1 MOL       0.0636
     42 H7        -47.8870  -45.2706   -0.2250 H           1 MOL       0.0576
     43 H8        -47.6767  -44.6349   -1.8947 H           1 MOL       0.0576
     44 H9        -50.2702  -42.2382   -1.3772 H           1 MOL       0.0708
     45 H10       -50.5287  -42.8287    0.3000 H           1 MOL       0.0708
     46 H11       -46.7192  -53.8533   -1.4655 H           1 MOL       0.0569
     47 H12       -46.1181  -54.7506   -2.8636 H           1 MOL       0.0569
     48 H13       -48.6905  -55.2608   -1.2868 H           1 MOL       0.0834
     49 H14       -47.2596  -56.3007   -1.3823 H           1 MOL       0.0834
     50 H15       -47.6726  -56.6546   -3.6842 H           1 MOL       0.2032
     51 H16       -50.1279  -55.0128   -3.5272 H           1 MOL       0.0834
     52 H17       -49.5398  -55.9069   -4.9392 H           1 MOL       0.0834
     53 H18       -47.5589  -54.5160   -5.1147 H           1 MOL       0.0569
     54 H19       -48.9788  -53.4695   -5.0216 H           1 MOL       0.0569
     55 H20       -49.6158  -58.0184   -3.6538 H           1 MOL       0.0778
     56 H21       -50.1314  -57.2150   -2.1570 H           1 MOL       0.0778
     57 H22       -48.6518  -58.1974   -2.1901 H           1 MOL       0.0778
     58 H23       -46.2388  -39.9156    0.3511 H           1 MOL       0.0562
     59 H24       -44.8513  -38.3529   -0.8255 H           1 MOL       0.0600
     60 H25       -43.2237  -39.1387   -2.4394 H           1 MOL       0.0561
     61 H26       -44.3893  -43.0961   -1.7387 H           1 MOL       0.0562
     62 H27       -46.0701  -43.6557   -0.2540 H           1 MOL       0.1000
     63 H28       -42.9700  -41.5105   -2.8553 H           1 MOL       0.0600
     64 H29       -45.8451  -43.5921    3.3250 H           1 MOL       0.0528
     65 H30       -45.5309  -44.6107    1.9137 H           1 MOL       0.0528
     66 H31       -47.1936  -44.0896    2.2900 H           1 MOL       0.0528
@<TRIPOS>BOND
     1     1    15   1
     2     1    16   1
     3    25     1  am
     4     2     4   1
     5    13     2   1
     6     3     4   2
     7     3     5   1
     8    14     3   1
     9     5     6  am
    10     6     7   1
    11     6     8   2
    12     7     9  ar
    13     7    12  ar
    14     9    10  ar
    15    10    24  ar
    16    12    11  ar
    17    11    24  ar
    18    13    14   2
    19    16    13   1
    20    15    14   1
    21    17    18   1
    22    17    22   1
    23    24    17   1
    24    18    19   1
    25    19    20   1
    26    21    20   1
    27    20    23   1
    28    22    21   1
    29    25    26   2
    30    32    25   1
    31    27    28  ar
    32    29    27  ar
    33    28    30  ar
    34    29    31  ar
    35    29    32   1
    36    30    33  ar
    37    31    33  ar
    38    32    35   1
    39    35    34   1
    40     2    36   1
    41     5    37   1
    42     9    38   1
    43    10    39   1
    44    11    40   1
    45    12    41   1
    46    15    42   1
    47    15    43   1
    48    16    44   1
    49    16    45   1
    50    18    46   1
    51    18    47   1
    52    19    48   1
    53    19    49   1
    54    20    50   1
    55    21    51   1
    56    21    52   1
    57    22    53   1
    58    22    54   1
    59    23    55   1
    60    23    56   1
    61    23    57   1
    62    27    58   1
    63    28    59   1
    64    30    60   1
    65    31    61   1
    66    32    62   1
    67    33    63   1
    68    34    64   1
    69    34    65   1
    70    34    66   1
@<TRIPOS>SUBSTRUCTURE
     1  MOL      3

