@<TRIPOS>MOLECULE
2v7a_ligand_026
    66    70
SMALL
GAST_HUCK
****
This file was generated by PARSER (from files_GN.cpp)

@<TRIPOS>ATOM
      1 N1        -46.2599  -46.1053   -5.0413 N.am        1 MOL      -0.2534
      2 N2        -44.2920  -47.7118   -7.5921 N.pl3       1 MOL      -0.2433
      3 C3        -45.3782  -49.3104   -6.5931 C.2         1 MOL       0.1027
      4 N4        -44.5264  -48.9929   -7.5910 N.2         1 MOL      -0.2404
      5 N5        -45.8326  -50.5800   -6.4586 N.am        1 MOL      -0.2391
      6 C6        -46.6788  -51.0905   -5.5699 C.2         1 MOL       0.2181
      7 C7        -47.1513  -52.4082   -5.6776 C.ar        1 MOL       0.0412
      8 O8        -47.0541  -50.4092   -4.6235 O.2         1 MOL      -0.3816
      9 C9        -47.1806  -53.1072   -6.9113 C.ar        1 MOL      -0.0531
     10 C10       -47.6875  -54.4166   -7.0057 C.ar        1 MOL      -0.0381
     11 C11       -48.1509  -54.4102   -4.6472 C.ar        1 MOL      -0.0381
     12 C12       -47.6641  -53.0963   -4.5499 C.ar        1 MOL      -0.0531
     13 C13       -44.9941  -47.1335   -6.6063 C.2         1 MOL       0.0786
     14 C14       -45.6693  -48.1110   -5.9396 C.2         1 MOL       0.0146
     15 C15       -46.4792  -47.5277   -4.8828 C.3         1 MOL       0.0514
     16 C16       -45.3054  -45.8089   -6.0936 C.3         1 MOL       0.0897
     17 N17       -48.6362  -56.4271   -5.9535 N.pl3       1 MOL      -0.2958
     18 C18       -48.1368  -57.3967   -6.9205 C.3         1 MOL       0.0680
     19 C19       -49.2979  -57.9960   -7.7480 C.3         1 MOL      -0.0118
     20 N20       -50.3158  -58.5975   -6.8336 N.4         1 MOL       0.2359
     21 C21       -50.8099  -57.6068   -5.8312 C.3         1 MOL      -0.0118
     22 C22       -49.6302  -56.9810   -5.0406 C.3         1 MOL       0.0680
     23 C23       -51.4236  -59.2715   -7.5663 C.3         1 MOL      -0.0430
     24 C24       -48.1815  -55.1243   -5.8753 C.ar        1 MOL       0.0460
     25 C25       -46.8804  -45.1364   -4.3443 C.2         1 MOL       0.2222
     26 O26       -46.6571  -43.9633   -4.6500 O.2         1 MOL      -0.3907
     27 C27       -49.7876  -46.0733   -4.4378 C.ar        1 MOL      -0.0555
     28 C28       -50.7740  -47.0278   -4.7573 C.ar        1 MOL      -0.0680
     29 C29       -48.8571  -46.3061   -3.3944 C.ar        1 MOL       0.0044
     30 C31       -50.8484  -48.2306   -4.0305 C.ar        1 MOL      -0.0684
     31 C33       -48.9604  -47.5172   -2.6647 C.ar        1 MOL      -0.0555
     32 C20       -47.7506  -45.3238   -3.1773 C.3         1 MOL       0.1804
     33 C35       -49.9474  -48.4714   -2.9797 C.ar        1 MOL      -0.0680
     34 C36       -47.2976  -45.3982   -0.7467 C.3         1 MOL       0.0424
     35 O34       -46.8483  -45.6500   -2.0948 O.3         1 MOL      -0.3473
     36 H1        -43.7354  -47.2408   -8.2322 H           1 MOL       0.2389
     37 H2        -45.4986  -51.1959   -7.1235 H           1 MOL       0.2188
     38 H3        -46.8709  -52.6519   -7.7738 H           1 MOL       0.0636
     39 H4        -47.7346  -54.8250   -7.9402 H           1 MOL       0.0530
     40 H5        -48.4347  -54.8563   -3.7755 H           1 MOL       0.0530
     41 H6        -47.6643  -52.6564   -3.6241 H           1 MOL       0.0636
     42 H7        -47.5138  -47.7954   -5.0759 H           1 MOL       0.0576
     43 H8        -46.1527  -47.8776   -3.9024 H           1 MOL       0.0576
     44 H9        -44.4027  -45.3267   -5.7051 H           1 MOL       0.0708
     45 H10       -45.7503  -45.2018   -6.8892 H           1 MOL       0.0708
     46 H11       -47.6481  -58.2066   -6.3696 H           1 MOL       0.0569
     47 H12       -47.3767  -57.0156   -7.6019 H           1 MOL       0.0569
     48 H13       -48.8922  -58.7624   -8.4126 H           1 MOL       0.0834
     49 H14       -49.7470  -57.2110   -8.3649 H           1 MOL       0.0834
     50 H15       -49.8345  -59.3286   -6.3058 H           1 MOL       0.2032
     51 H16       -51.4799  -58.1000   -5.1194 H           1 MOL       0.0834
     52 H17       -51.3687  -56.8094   -6.3289 H           1 MOL       0.0834
     53 H18       -50.0832  -56.2493   -4.3729 H           1 MOL       0.0569
     54 H19       -49.1613  -57.7466   -4.4213 H           1 MOL       0.0569
     55 H20       -51.0228  -60.0421   -8.2303 H           1 MOL       0.0778
     56 H21       -51.9978  -58.5578   -8.1645 H           1 MOL       0.0778
     57 H22       -52.1007  -59.7630   -6.8638 H           1 MOL       0.0778
     58 H23       -49.7439  -45.2166   -4.9934 H           1 MOL       0.0562
     59 H24       -51.4209  -46.8621   -5.5330 H           1 MOL       0.0600
     60 H25       -51.5531  -48.9345   -4.2683 H           1 MOL       0.0561
     61 H26       -48.2922  -47.7351   -1.9228 H           1 MOL       0.0562
     62 H27       -48.2430  -44.3723   -2.9388 H           1 MOL       0.1000
     63 H28       -49.9928  -49.3501   -2.4547 H           1 MOL       0.0600
     64 H29       -46.5183  -45.7461   -0.0590 H           1 MOL       0.0528
     65 H30       -48.2310  -45.9333   -0.5298 H           1 MOL       0.0528
     66 H31       -47.4488  -44.3232   -0.5921 H           1 MOL       0.0528
@<TRIPOS>BOND
     1     1    15   1
     2     1    16   1
     3    25     1  am
     4     2     4   1
     5    13     2   1
     6     3     4   2
     7     3     5   1
     8    14     3   1
     9     5     6  am
    10     6     7   1
    11     6     8   2
    12     7     9  ar
    13     7    12  ar
    14     9    10  ar
    15    10    24  ar
    16    12    11  ar
    17    11    24  ar
    18    13    14   2
    19    16    13   1
    20    15    14   1
    21    17    18   1
    22    17    22   1
    23    24    17   1
    24    18    19   1
    25    19    20   1
    26    21    20   1
    27    20    23   1
    28    22    21   1
    29    25    26   2
    30    32    25   1
    31    27    28  ar
    32    29    27  ar
    33    28    30  ar
    34    29    31  ar
    35    29    32   1
    36    30    33  ar
    37    31    33  ar
    38    32    35   1
    39    35    34   1
    40     2    36   1
    41     5    37   1
    42     9    38   1
    43    10    39   1
    44    11    40   1
    45    12    41   1
    46    15    42   1
    47    15    43   1
    48    16    44   1
    49    16    45   1
    50    18    46   1
    51    18    47   1
    52    19    48   1
    53    19    49   1
    54    20    50   1
    55    21    51   1
    56    21    52   1
    57    22    53   1
    58    22    54   1
    59    23    55   1
    60    23    56   1
    61    23    57   1
    62    27    58   1
    63    28    59   1
    64    30    60   1
    65    31    61   1
    66    32    62   1
    67    33    63   1
    68    34    64   1
    69    34    65   1
    70    34    66   1
@<TRIPOS>SUBSTRUCTURE
     1  MOL      3

