@<TRIPOS>MOLECULE
2v7a_ligand_019
    66    70
SMALL
GAST_HUCK
****
This file was generated by PARSER (from files_GN.cpp)

@<TRIPOS>ATOM
      1 N1        -40.6016  -47.3754  -11.6884 N.am        1 MOL      -0.2534
      2 N2        -39.6588  -50.8353  -11.5756 N.pl3       1 MOL      -0.2433
      3 C3        -41.7152  -50.7771  -10.8876 C.2         1 MOL       0.1027
      4 N4        -40.6510  -51.5598  -11.1621 N.2         1 MOL      -0.2404
      5 N5        -42.8731  -51.3460  -10.4750 N.am        1 MOL      -0.2391
      6 C6        -44.0436  -50.7943  -10.1578 C.2         1 MOL       0.2181
      7 C7        -45.1852  -51.5678   -9.8620 C.ar        1 MOL       0.0412
      8 O8        -44.1279  -49.5727  -10.1380 O.2         1 MOL      -0.3816
      9 C9        -46.4279  -50.9494   -9.5428 C.ar        1 MOL      -0.0531
     10 C10       -47.5874  -51.7048   -9.2898 C.ar        1 MOL      -0.0381
     11 C11       -46.3290  -53.7480   -9.6340 C.ar        1 MOL      -0.0381
     12 C12       -45.1715  -52.9902   -9.8911 C.ar        1 MOL      -0.0531
     13 C13       -40.0224  -49.5494  -11.5921 C.2         1 MOL       0.0786
     14 C14       -41.3161  -49.4700  -11.1685 C.2         1 MOL       0.0146
     15 C15       -41.7664  -48.0851  -11.2008 C.3         1 MOL       0.0514
     16 C16       -39.4788  -48.2508  -11.9479 C.3         1 MOL       0.0897
     17 N17       -48.6658  -53.8425   -9.1107 N.pl3       1 MOL      -0.2958
     18 C18       -49.5873  -54.1346  -10.1805 C.3         1 MOL       0.0680
     19 C19       -51.0046  -53.6330   -9.8091 C.3         1 MOL      -0.0118
     20 N20       -51.4142  -54.1298   -8.4569 N.4         1 MOL       0.2359
     21 C21       -50.4149  -53.7843   -7.3967 C.3         1 MOL      -0.0118
     22 C22       -48.9984  -54.2833   -7.7793 C.3         1 MOL       0.0680
     23 C23       -52.7960  -53.7075   -8.0966 C.3         1 MOL      -0.0430
     24 C24       -47.5467  -53.1095   -9.3398 C.ar        1 MOL       0.0460
     25 C25       -40.5391  -46.0482  -11.8900 C.2         1 MOL       0.2222
     26 O26       -39.4592  -45.5574  -12.2028 O.2         1 MOL      -0.3907
     27 C27       -43.5317  -45.1867  -10.0213 C.ar        1 MOL      -0.0555
     28 C28       -43.9911  -45.1820   -8.6911 C.ar        1 MOL      -0.0680
     29 C29       -42.1535  -45.0427  -10.3193 C.ar        1 MOL       0.0044
     30 C31       -43.0771  -45.0389   -7.6317 C.ar        1 MOL      -0.0684
     31 C33       -41.2538  -44.8600   -9.2380 C.ar        1 MOL      -0.0555
     32 C20       -41.6644  -45.1156  -11.7338 C.3         1 MOL       0.1804
     33 C35       -41.7070  -44.8799   -7.9060 C.ar        1 MOL      -0.0680
     34 C36       -41.3035  -43.4511  -13.5300 C.3         1 MOL       0.0424
     35 O34       -41.3566  -43.7508  -12.1193 O.3         1 MOL      -0.3473
     36 H1        -38.8074  -51.1868  -11.8702 H           1 MOL       0.2389
     37 H2        -42.8323  -52.3115  -10.4260 H           1 MOL       0.2188
     38 H3        -46.5074  -49.9305   -9.4962 H           1 MOL       0.0636
     39 H4        -48.4639  -51.2305   -9.0643 H           1 MOL       0.0530
     40 H5        -46.2830  -54.7704   -9.6718 H           1 MOL       0.0530
     41 H6        -44.3184  -53.5072  -10.1083 H           1 MOL       0.0636
     42 H7        -42.6182  -47.9790  -11.8764 H           1 MOL       0.0576
     43 H8        -42.0307  -47.7757  -10.1883 H           1 MOL       0.0576
     44 H9        -38.6192  -48.0102  -11.3172 H           1 MOL       0.0708
     45 H10       -39.1922  -48.2354  -13.0032 H           1 MOL       0.0708
     46 H11       -49.6159  -55.2168  -10.3336 H           1 MOL       0.0569
     47 H12       -49.2855  -53.6772  -11.1295 H           1 MOL       0.0569
     48 H13       -51.7055  -53.9958  -10.5657 H           1 MOL       0.0834
     49 H14       -51.0123  -52.5381   -9.8334 H           1 MOL       0.0834
     50 H15       -51.4312  -55.1509   -8.5158 H           1 MOL       0.2032
     51 H16       -50.6993  -54.2572   -6.4521 H           1 MOL       0.0834
     52 H17       -50.3833  -52.7019   -7.2395 H           1 MOL       0.0834
     53 H18       -48.2823  -53.9273   -7.0309 H           1 MOL       0.0569
     54 H19       -48.9820  -55.3769   -7.7572 H           1 MOL       0.0569
     55 H20       -53.5076  -54.0751   -8.8389 H           1 MOL       0.0778
     56 H21       -52.8780  -52.6186   -8.0425 H           1 MOL       0.0778
     57 H22       -53.0843  -54.1274   -7.1305 H           1 MOL       0.0778
     58 H23       -44.2152  -45.3042  -10.7728 H           1 MOL       0.0562
     59 H24       -44.9876  -45.2920   -8.4920 H           1 MOL       0.0600
     60 H25       -43.4077  -45.0492   -6.6630 H           1 MOL       0.0561
     61 H26       -40.2528  -44.7488   -9.4134 H           1 MOL       0.0562
     62 H27       -42.4739  -45.4783  -12.3783 H           1 MOL       0.1000
     63 H28       -41.0422  -44.7829   -7.1358 H           1 MOL       0.0600
     64 H29       -41.0406  -42.4005  -13.6478 H           1 MOL       0.0528
     65 H30       -42.2740  -43.6159  -14.0039 H           1 MOL       0.0528
     66 H31       -40.5471  -44.0496  -14.0388 H           1 MOL       0.0528
@<TRIPOS>BOND
     1     1    15   1
     2     1    16   1
     3    25     1  am
     4     2     4   1
     5    13     2   1
     6     3     4   2
     7     3     5   1
     8    14     3   1
     9     5     6  am
    10     6     7   1
    11     6     8   2
    12     7     9  ar
    13     7    12  ar
    14     9    10  ar
    15    10    24  ar
    16    12    11  ar
    17    11    24  ar
    18    13    14   2
    19    16    13   1
    20    15    14   1
    21    17    18   1
    22    17    22   1
    23    24    17   1
    24    18    19   1
    25    19    20   1
    26    21    20   1
    27    20    23   1
    28    22    21   1
    29    25    26   2
    30    32    25   1
    31    27    28  ar
    32    29    27  ar
    33    28    30  ar
    34    29    31  ar
    35    29    32   1
    36    30    33  ar
    37    31    33  ar
    38    32    35   1
    39    35    34   1
    40     2    36   1
    41     5    37   1
    42     9    38   1
    43    10    39   1
    44    11    40   1
    45    12    41   1
    46    15    42   1
    47    15    43   1
    48    16    44   1
    49    16    45   1
    50    18    46   1
    51    18    47   1
    52    19    48   1
    53    19    49   1
    54    20    50   1
    55    21    51   1
    56    21    52   1
    57    22    53   1
    58    22    54   1
    59    23    55   1
    60    23    56   1
    61    23    57   1
    62    27    58   1
    63    28    59   1
    64    30    60   1
    65    31    61   1
    66    32    62   1
    67    33    63   1
    68    34    64   1
    69    34    65   1
    70    34    66   1
@<TRIPOS>SUBSTRUCTURE
     1  MOL      3

