@<TRIPOS>MOLECULE
2vl4_ligand_012
    25    25
SMALL
GAST_HUCK
****
This file was generated by PARSER (from files_GN.cpp)

@<TRIPOS>ATOM
      1 C1         26.5033   46.3652   -0.6540 C.3         1 MNM       0.1497
      2 C2         27.5789   45.4200   -1.2534 C.3         1 MNM       0.1091
      3 C3         25.7156   47.1175   -1.7702 C.3         1 MNM       0.0986
      4 O4         27.0927   47.2914    0.2601 O.3         1 MNM      -0.3811
      5 O5         28.3652   44.8472   -0.2185 O.3         1 MNM      -0.3504
      6 N6         28.4389   46.1236   -2.2264 N.4         1 MNM       0.2513
      7 O7         24.7312   46.2339   -2.3004 O.3         1 MNM      -0.3884
      8 C8         26.5953   47.6824   -2.9352 C.3         1 MNM       0.0509
      9 C9         27.1966   49.0811   -2.6255 C.3         1 MNM       0.0543
     10 C10        27.6833   46.6609   -3.3786 C.3         1 MNM      -0.0236
     11 O11        27.4001   49.2979   -1.2292 O.3         1 MNM      -0.3945
     12 H1         25.8043   45.7585   -0.0699 H           1 MNM       0.0704
     13 H2         27.0971   44.5866   -1.7658 H           1 MNM       0.1211
     14 H3         25.1601   47.9403   -1.3146 H           1 MNM       0.0627
     15 H4         27.3476   46.7622    1.0451 H           1 MNM       0.2103
     16 H5         27.7571   44.2115    0.2156 H           1 MNM       0.2155
     17 H6         29.1336   45.4651   -2.5756 H           1 MNM       0.2042
     18 H7         28.9247   46.8877   -1.7531 H           1 MNM       0.2042
     19 H8         25.1545   45.3518   -2.3242 H           1 MNM       0.2099
     20 H9         25.9387   47.8404   -3.7975 H           1 MNM       0.0401
     21 H10        26.5336   49.8697   -3.0070 H           1 MNM       0.0562
     22 H11        28.1655   49.1839   -3.1287 H           1 MNM       0.0562
     23 H12        27.2124   45.8357   -3.9184 H           1 MNM       0.0819
     24 H13        28.3889   47.1286   -4.0667 H           1 MNM       0.0819
     25 H14        27.8860   50.1393   -1.2008 H           1 MNM       0.2094
@<TRIPOS>BOND
     1     1     2   1
     2     1     3   1
     3     1     4   1
     4     2     5   1
     5     2     6   1
     6     3     7   1
     7     3     8   1
     8     6    10   1
     9     8     9   1
    10     8    10   1
    11     9    11   1
    12     1    12   1
    13     2    13   1
    14     3    14   1
    15     4    15   1
    16     5    16   1
    17     6    17   1
    18     6    18   1
    19     7    19   1
    20     8    20   1
    21     9    21   1
    22     9    22   1
    23    10    23   1
    24    10    24   1
    25    11    25   1
@<TRIPOS>SUBSTRUCTURE
     1  MNM      1

