@<TRIPOS>MOLECULE
2vl4_ligand_022
    25    25
SMALL
GAST_HUCK
****
This file was generated by PARSER (from files_GN.cpp)

@<TRIPOS>ATOM
      1 C1         29.4944   47.5931   -2.4198 C.3         1 MNM       0.1497
      2 C2         29.6601   48.5102   -1.1794 C.3         1 MNM       0.1091
      3 C3         28.2898   46.6265   -2.2262 C.3         1 MNM       0.0986
      4 O4         30.7136   46.8893   -2.6555 O.3         1 MNM      -0.3811
      5 O5         30.0280   47.7646   -0.0150 O.3         1 MNM      -0.3504
      6 N6         28.3992   49.2457   -0.9067 N.4         1 MNM       0.2513
      7 O7         28.1454   45.8257   -3.3941 O.3         1 MNM      -0.3884
      8 C8         26.9912   47.4444   -1.9395 C.3         1 MNM       0.0509
      9 C9         25.7209   46.5703   -1.7359 C.3         1 MNM       0.0543
     10 C10        27.2064   48.3964   -0.7207 C.3         1 MNM      -0.0236
     11 O11        25.7097   45.9164   -0.4637 O.3         1 MNM      -0.3945
     12 H1         29.3137   48.2357   -3.2966 H           1 MNM       0.0704
     13 H2         30.4447   49.2485   -1.3691 H           1 MNM       0.1211
     14 H3         28.4881   45.9620   -1.3916 H           1 MNM       0.0627
     15 H4         30.5264   46.2897   -3.4147 H           1 MNM       0.2103
     16 H5         30.6211   47.0542   -0.3357 H           1 MNM       0.2155
     17 H6         28.2294   49.8675   -1.6854 H           1 MNM       0.2042
     18 H7         28.5230   49.8149   -0.0659 H           1 MNM       0.2042
     19 H8         28.7090   45.0413   -3.2315 H           1 MNM       0.2099
     20 H9         26.7916   48.0745   -2.8145 H           1 MNM       0.0401
     21 H10        25.6319   45.8250   -2.5363 H           1 MNM       0.0562
     22 H11        24.8341   47.2070   -1.7781 H           1 MNM       0.0562
     23 H12        26.3379   49.0482   -0.5902 H           1 MNM       0.0819
     24 H13        27.3283   47.8185    0.2060 H           1 MNM       0.0819
     25 H14        26.4771   45.2817   -0.4921 H           1 MNM       0.2094
@<TRIPOS>BOND
     1     1     2   1
     2     1     3   1
     3     1     4   1
     4     2     5   1
     5     2     6   1
     6     3     7   1
     7     3     8   1
     8     6    10   1
     9     8     9   1
    10     8    10   1
    11     9    11   1
    12     1    12   1
    13     2    13   1
    14     3    14   1
    15     4    15   1
    16     5    16   1
    17     6    17   1
    18     6    18   1
    19     7    19   1
    20     8    20   1
    21     9    21   1
    22     9    22   1
    23    10    23   1
    24    10    24   1
    25    11    25   1
@<TRIPOS>SUBSTRUCTURE
     1  MNM      1

