@<TRIPOS>MOLECULE
2vl4_ligand_016
    25    25
SMALL
GAST_HUCK
****
This file was generated by PARSER (from files_GN.cpp)

@<TRIPOS>ATOM
      1 C1         28.0715   48.7291   -1.5367 C.3         1 MNM       0.1497
      2 C2         26.7239   49.4701   -1.7402 C.3         1 MNM       0.1091
      3 C3         28.7055   48.3504   -2.9113 C.3         1 MNM       0.0986
      4 O4         27.8712   47.5515   -0.7555 O.3         1 MNM      -0.3811
      5 O5         26.1103   49.7424   -0.4835 O.3         1 MNM      -0.3504
      6 N6         25.8074   48.6561   -2.5652 N.4         1 MNM       0.2513
      7 O7         29.1803   49.5225   -3.5700 O.3         1 MNM      -0.3884
      8 C8         27.7014   47.6003   -3.8550 C.3         1 MNM       0.0509
      9 C9         27.5173   46.0912   -3.4739 C.3         1 MNM       0.0543
     10 C10        26.3478   48.3755   -3.9163 C.3         1 MNM      -0.0236
     11 O11        27.8856   45.2414   -4.5564 O.3         1 MNM      -0.3945
     12 H1         28.7617   49.3713   -0.9855 H           1 MNM       0.0704
     13 H2         26.8833   50.4360   -2.2307 H           1 MNM       0.1211
     14 H3         29.5848   47.7250   -2.7401 H           1 MNM       0.0627
     15 H4         27.4649   47.8494    0.0862 H           1 MNM       0.2103
     16 H5         26.6474   50.4789   -0.1221 H           1 MNM       0.2155
     17 H6         24.9152   49.1464   -2.6608 H           1 MNM       0.2042
     18 H7         25.6344   47.7720   -2.0839 H           1 MNM       0.2042
     19 H8         29.8999   49.8761   -3.0048 H           1 MNM       0.2099
     20 H9         28.1300   47.6420   -4.8627 H           1 MNM       0.0401
     21 H10        26.4795   45.8649   -3.2065 H           1 MNM       0.0562
     22 H11        28.1550   45.8012   -2.6386 H           1 MNM       0.0562
     23 H12        26.4866   49.3257   -4.4444 H           1 MNM       0.0819
     24 H13        25.6113   47.7990   -4.4809 H           1 MNM       0.0819
     25 H14        28.0446   44.3670   -4.1433 H           1 MNM       0.2094
@<TRIPOS>BOND
     1     1     2   1
     2     1     3   1
     3     1     4   1
     4     2     5   1
     5     2     6   1
     6     3     7   1
     7     3     8   1
     8     6    10   1
     9     8     9   1
    10     8    10   1
    11     9    11   1
    12     1    12   1
    13     2    13   1
    14     3    14   1
    15     4    15   1
    16     5    16   1
    17     6    17   1
    18     6    18   1
    19     7    19   1
    20     8    20   1
    21     9    21   1
    22     9    22   1
    23    10    23   1
    24    10    24   1
    25    11    25   1
@<TRIPOS>SUBSTRUCTURE
     1  MNM      1

