@<TRIPOS>MOLECULE
2vl4_ligand_013
    25    25
SMALL
GAST_HUCK
****
This file was generated by PARSER (from files_GN.cpp)

@<TRIPOS>ATOM
      1 C1         26.6386   47.3841   -3.2277 C.3         1 MNM       0.1497
      2 C2         27.8439   46.4301   -3.3730 C.3         1 MNM       0.1091
      3 C3         27.1005   48.7108   -2.5645 C.3         1 MNM       0.0986
      4 O4         25.6079   46.7850   -2.4426 O.3         1 MNM      -0.3811
      5 O5         27.3948   45.1934   -3.9187 O.3         1 MNM      -0.3504
      6 N6         28.5084   46.1854   -2.0686 N.4         1 MNM       0.2513
      7 O7         27.9348   49.4001   -3.4995 O.3         1 MNM      -0.3884
      8 C8         27.8617   48.4852   -1.2112 C.3         1 MNM       0.0509
      9 C9         26.9018   48.1349   -0.0342 C.3         1 MNM       0.0543
     10 C10        28.9904   47.4173   -1.4006 C.3         1 MNM      -0.0236
     11 O11        27.4667   48.4613    1.2340 O.3         1 MNM      -0.3945
     12 H1         26.2212   47.5836   -4.2188 H           1 MNM       0.0704
     13 H2         28.5740   46.8451   -4.0834 H           1 MNM       0.1211
     14 H3         26.2244   49.3454   -2.4044 H           1 MNM       0.0627
     15 H4         25.7578   45.8196   -2.4750 H           1 MNM       0.2103
     16 H5         28.1262   44.5550   -3.7258 H           1 MNM       0.2155
     17 H6         29.3038   45.5751   -2.2311 H           1 MNM       0.2042
     18 H7         27.8433   45.7038   -1.4672 H           1 MNM       0.2042
     19 H8         28.5858   49.8993   -2.9442 H           1 MNM       0.2099
     20 H9         28.3361   49.4282   -0.9381 H           1 MNM       0.0401
     21 H10        26.6520   47.0708   -0.0370 H           1 MNM       0.0562
     22 H11        25.9810   48.7078   -0.1228 H           1 MNM       0.0562
     23 H12        29.7907   47.8552   -1.9995 H           1 MNM       0.0819
     24 H13        29.4216   47.1331   -0.4394 H           1 MNM       0.0819
     25 H14        27.9325   47.6425    1.5271 H           1 MNM       0.2094
@<TRIPOS>BOND
     1     1     2   1
     2     1     3   1
     3     1     4   1
     4     2     5   1
     5     2     6   1
     6     3     7   1
     7     3     8   1
     8     6    10   1
     9     8     9   1
    10     8    10   1
    11     9    11   1
    12     1    12   1
    13     2    13   1
    14     3    14   1
    15     4    15   1
    16     5    16   1
    17     6    17   1
    18     6    18   1
    19     7    19   1
    20     8    20   1
    21     9    21   1
    22     9    22   1
    23    10    23   1
    24    10    24   1
    25    11    25   1
@<TRIPOS>SUBSTRUCTURE
     1  MNM      1

