@<TRIPOS>MOLECULE
2vl4_ligand_011
    25    25
SMALL
GAST_HUCK
****
This file was generated by PARSER (from files_GN.cpp)

@<TRIPOS>ATOM
      1 C1         27.8866   46.3158   -1.0232 C.3         1 MNM       0.1497
      2 C2         27.0834   46.3285   -2.3520 C.3         1 MNM       0.1091
      3 C3         29.2120   47.1120   -1.1310 C.3         1 MNM       0.0986
      4 O4         28.1889   44.9748   -0.6364 O.3         1 MNM      -0.3811
      5 O5         27.7050   45.5417   -3.3666 O.3         1 MNM      -0.3504
      6 N6         26.9147   47.7103   -2.8530 N.4         1 MNM       0.2513
      7 O7         29.7946   47.2200    0.1636 O.3         1 MNM      -0.3884
      8 C8         29.0190   48.5346   -1.7360 C.3         1 MNM       0.0509
      9 C9         30.3551   49.3102   -1.9429 C.3         1 MNM       0.0543
     10 C10        28.1838   48.4470   -3.0516 C.3         1 MNM      -0.0236
     11 O11        31.5330   48.5006   -1.8746 O.3         1 MNM      -0.3945
     12 H1         27.2611   46.7605   -0.2447 H           1 MNM       0.0704
     13 H2         26.0903   45.9149   -2.1839 H           1 MNM       0.1211
     14 H3         29.9069   46.5496   -1.7601 H           1 MNM       0.0627
     15 H4         27.3414   44.4742   -0.7085 H           1 MNM       0.2103
     16 H5         27.7614   44.6310   -2.9958 H           1 MNM       0.2155
     17 H6         26.3418   48.2337   -2.1795 H           1 MNM       0.2042
     18 H7         26.4070   47.6826   -3.7454 H           1 MNM       0.2042
     19 H8         30.4331   46.4647    0.2426 H           1 MNM       0.2099
     20 H9         28.4129   49.1201   -1.0289 H           1 MNM       0.0401
     21 H10        30.4498   50.0870   -1.1632 H           1 MNM       0.0562
     22 H11        30.3628   49.8333   -2.9133 H           1 MNM       0.0562
     23 H12        27.9314   49.4552   -3.3987 H           1 MNM       0.0819
     24 H13        28.7669   47.9582   -3.8405 H           1 MNM       0.0819
     25 H14        31.3838   47.7986   -2.5456 H           1 MNM       0.2094
@<TRIPOS>BOND
     1     1     2   1
     2     1     3   1
     3     1     4   1
     4     2     5   1
     5     2     6   1
     6     3     7   1
     7     3     8   1
     8     6    10   1
     9     8     9   1
    10     8    10   1
    11     9    11   1
    12     1    12   1
    13     2    13   1
    14     3    14   1
    15     4    15   1
    16     5    16   1
    17     6    17   1
    18     6    18   1
    19     7    19   1
    20     8    20   1
    21     9    21   1
    22     9    22   1
    23    10    23   1
    24    10    24   1
    25    11    25   1
@<TRIPOS>SUBSTRUCTURE
     1  MNM      1

