@<TRIPOS>MOLECULE
2vl4_ligand_018
    25    25
SMALL
GAST_HUCK
****
This file was generated by PARSER (from files_GN.cpp)

@<TRIPOS>ATOM
      1 C1         28.6249   47.1387   -0.8056 C.3         1 MNM       0.1497
      2 C2         27.5087   47.6431    0.1476 C.3         1 MNM       0.1091
      3 C3         28.1366   47.0897   -2.2791 C.3         1 MNM       0.0986
      4 O4         29.0836   45.8645   -0.3841 O.3         1 MNM      -0.3811
      5 O5         26.4634   46.6750    0.2751 O.3         1 MNM      -0.3504
      6 N6         26.9349   48.9307   -0.3240 N.4         1 MNM       0.2513
      7 O7         29.2265   46.7277   -3.1371 O.3         1 MNM      -0.3884
      8 C8         27.5572   48.4776   -2.6969 C.3         1 MNM       0.0509
      9 C9         27.0636   48.5107   -4.1733 C.3         1 MNM       0.0543
     10 C10        26.4261   48.9079   -1.7157 C.3         1 MNM      -0.0236
     11 O11        26.2006   47.4250   -4.4760 O.3         1 MNM      -0.3945
     12 H1         29.4714   47.8302   -0.7438 H           1 MNM       0.0704
     13 H2         27.9318   47.8053    1.1469 H           1 MNM       0.1211
     14 H3         27.3620   46.3203   -2.3702 H           1 MNM       0.0627
     15 H4         29.5540   45.4666   -1.1601 H           1 MNM       0.2103
     16 H5         26.8696   45.9073    0.7242 H           1 MNM       0.2155
     17 H6         27.6467   49.6623   -0.2627 H           1 MNM       0.2042
     18 H7         26.1598   49.1780    0.2924 H           1 MNM       0.2042
     19 H8         29.3659   45.7716   -2.9898 H           1 MNM       0.2099
     20 H9         28.3587   49.2126   -2.6130 H           1 MNM       0.0401
     21 H10        27.9191   48.4839   -4.8443 H           1 MNM       0.0562
     22 H11        26.4984   49.4433   -4.3538 H           1 MNM       0.0562
     23 H12        26.0912   49.9208   -1.9494 H           1 MNM       0.0819
     24 H13        25.5775   48.2310   -1.7915 H           1 MNM       0.0819
     25 H14        26.8137   46.6585   -4.6232 H           1 MNM       0.2094
@<TRIPOS>BOND
     1     1     2   1
     2     1     3   1
     3     1     4   1
     4     2     5   1
     5     2     6   1
     6     3     7   1
     7     3     8   1
     8     6    10   1
     9     8     9   1
    10     8    10   1
    11     9    11   1
    12     1    12   1
    13     2    13   1
    14     3    14   1
    15     4    15   1
    16     5    16   1
    17     6    17   1
    18     6    18   1
    19     7    19   1
    20     8    20   1
    21     9    21   1
    22     9    22   1
    23    10    23   1
    24    10    24   1
    25    11    25   1
@<TRIPOS>SUBSTRUCTURE
     1  MNM      1

