@<TRIPOS>MOLECULE
2vl4_ligand_005
    25    25
SMALL
GAST_HUCK
****
This file was generated by PARSER (from files_GN.cpp)

@<TRIPOS>ATOM
      1 C1         27.4292   46.3881   -2.8322 C.3         1 MNM       0.1497
      2 C2         26.9677   47.7931   -3.3040 C.3         1 MNM       0.1091
      3 C3         28.0031   46.4065   -1.3819 C.3         1 MNM       0.0986
      4 O4         28.3981   45.8964   -3.7620 O.3         1 MNM      -0.3811
      5 O5         28.0703   48.6637   -3.5766 O.3         1 MNM      -0.3504
      6 N6         26.0550   48.4044   -2.3131 N.4         1 MNM       0.2513
      7 O7         28.2386   45.0682   -0.9216 O.3         1 MNM      -0.3884
      8 C8         27.0753   47.1610   -0.3641 C.3         1 MNM       0.0509
      9 C9         27.7385   47.2739    1.0501 C.3         1 MNM       0.0543
     10 C10        26.6264   48.5383   -0.9477 C.3         1 MNM      -0.0236
     11 O11        27.5602   48.5571    1.6618 O.3         1 MNM      -0.3945
     12 H1         26.5659   45.7111   -2.8584 H           1 MNM       0.0704
     13 H2         26.4112   47.6836   -4.2378 H           1 MNM       0.1211
     14 H3         28.9691   46.9055   -1.4154 H           1 MNM       0.0627
     15 H4         28.8204   45.1184   -3.3058 H           1 MNM       0.2103
     16 H5         28.6510   48.6072   -2.7840 H           1 MNM       0.2155
     17 H6         25.2087   47.8315   -2.2522 H           1 MNM       0.2042
     18 H7         25.7899   49.3373   -2.6486 H           1 MNM       0.2042
     19 H8         27.3670   44.6155   -0.9329 H           1 MNM       0.2099
     20 H9         26.1578   46.5657   -0.2483 H           1 MNM       0.0401
     21 H10        28.8163   47.0991    1.0007 H           1 MNM       0.0562
     22 H11        27.3021   46.5101    1.6994 H           1 MNM       0.0562
     23 H12        25.8476   48.9646   -0.3171 H           1 MNM       0.0819
     24 H13        27.4622   49.2472   -0.9636 H           1 MNM       0.0819
     25 H14        27.9362   48.4551    2.5872 H           1 MNM       0.2094
@<TRIPOS>BOND
     1     1     2   1
     2     1     3   1
     3     1     4   1
     4     2     5   1
     5     2     6   1
     6     3     7   1
     7     3     8   1
     8     6    10   1
     9     8     9   1
    10     8    10   1
    11     9    11   1
    12     1    12   1
    13     2    13   1
    14     3    14   1
    15     4    15   1
    16     5    16   1
    17     6    17   1
    18     6    18   1
    19     7    19   1
    20     8    20   1
    21     9    21   1
    22     9    22   1
    23    10    23   1
    24    10    24   1
    25    11    25   1
@<TRIPOS>SUBSTRUCTURE
     1  MNM      1

