@<TRIPOS>MOLECULE
2vl4_ligand_017
    25    25
SMALL
GAST_HUCK
****
This file was generated by PARSER (from files_GN.cpp)

@<TRIPOS>ATOM
      1 C1         27.2790   46.2319   -1.9892 C.3         1 MNM       0.1497
      2 C2         28.2741   47.1748   -2.7243 C.3         1 MNM       0.1091
      3 C3         26.3051   47.0400   -1.0869 C.3         1 MNM       0.0986
      4 O4         27.9692   45.2639   -1.2018 O.3         1 MNM      -0.3811
      5 O5         29.2411   46.4306   -3.4640 O.3         1 MNM      -0.3504
      6 N6         28.9633   48.0821   -1.7782 N.4         1 MNM       0.2513
      7 O7         25.3938   47.7688   -1.9099 O.3         1 MNM      -0.3884
      8 C8         27.0398   48.0378   -0.1376 C.3         1 MNM       0.0509
      9 C9         27.7202   47.3472    1.0846 C.3         1 MNM       0.0543
     10 C10        28.0447   48.9103   -0.9584 C.3         1 MNM      -0.0236
     11 O11        27.4502   48.0616    2.2917 O.3         1 MNM      -0.3945
     12 H1         26.7055   45.6811   -2.7426 H           1 MNM       0.0704
     13 H2         27.7245   47.7760   -3.4480 H           1 MNM       0.1211
     14 H3         25.7063   46.3488   -0.4942 H           1 MNM       0.0627
     15 H4         27.3308   44.5377   -1.0864 H           1 MNM       0.2103
     16 H5         29.6169   45.7767   -2.8272 H           1 MNM       0.2155
     17 H6         29.5734   48.7066   -2.3145 H           1 MNM       0.2042
     18 H7         29.5491   47.5167   -1.1567 H           1 MNM       0.2042
     19 H8         24.6071   47.1831   -2.0022 H           1 MNM       0.2099
     20 H9         26.2804   48.7248    0.2553 H           1 MNM       0.0401
     21 H10        28.8047   47.2665    0.9557 H           1 MNM       0.0562
     22 H11        27.3267   46.3389    1.2293 H           1 MNM       0.0562
     23 H12        27.4993   49.5893   -1.6206 H           1 MNM       0.0819
     24 H13        28.6466   49.5312   -0.2901 H           1 MNM       0.0819
     25 H14        28.0146   48.8658    2.2531 H           1 MNM       0.2094
@<TRIPOS>BOND
     1     1     2   1
     2     1     3   1
     3     1     4   1
     4     2     5   1
     5     2     6   1
     6     3     7   1
     7     3     8   1
     8     6    10   1
     9     8     9   1
    10     8    10   1
    11     9    11   1
    12     1    12   1
    13     2    13   1
    14     3    14   1
    15     4    15   1
    16     5    16   1
    17     6    17   1
    18     6    18   1
    19     7    19   1
    20     8    20   1
    21     9    21   1
    22     9    22   1
    23    10    23   1
    24    10    24   1
    25    11    25   1
@<TRIPOS>SUBSTRUCTURE
     1  MNM      1

