@<TRIPOS>MOLECULE
2vl4_ligand_014
    25    25
SMALL
GAST_HUCK
****
This file was generated by PARSER (from files_GN.cpp)

@<TRIPOS>ATOM
      1 C1         28.0130   46.4917   -2.0780 C.3         1 MNM       0.1497
      2 C2         28.7636   46.7470   -0.7387 C.3         1 MNM       0.1091
      3 C3         28.4621   47.4704   -3.1930 C.3         1 MNM       0.0986
      4 O4         26.5974   46.5934   -1.8975 O.3         1 MNM      -0.3811
      5 O5         28.3682   47.9633   -0.1070 O.3         1 MNM      -0.3504
      6 N6         30.2263   46.7706   -0.9716 N.4         1 MNM       0.2513
      7 O7         27.8530   47.0995   -4.4331 O.3         1 MNM      -0.3884
      8 C8         30.0179   47.4737   -3.3596 C.3         1 MNM       0.0509
      9 C9         30.5287   48.4190   -4.4790 C.3         1 MNM       0.0543
     10 C10        30.6854   47.7535   -1.9804 C.3         1 MNM      -0.0236
     11 O11        29.8311   49.6642   -4.5325 O.3         1 MNM      -0.3945
     12 H1         28.2306   45.4719   -2.4042 H           1 MNM       0.0704
     13 H2         28.5432   45.9351   -0.0432 H           1 MNM       0.1211
     14 H3         28.1210   48.4813   -2.9355 H           1 MNM       0.0627
     15 H4         26.2660   45.6652   -1.8667 H           1 MNM       0.2103
     16 H5         27.3990   47.8987   -0.0069 H           1 MNM       0.2155
     17 H6         30.5082   45.8431   -1.3019 H           1 MNM       0.2042
     18 H7         30.7100   46.9593   -0.0893 H           1 MNM       0.2042
     19 H8         26.8927   47.2418   -4.3114 H           1 MNM       0.2099
     20 H9         30.3117   46.4604   -3.6526 H           1 MNM       0.0401
     21 H10        30.3886   47.9449   -5.4514 H           1 MNM       0.0562
     22 H11        31.5960   48.6189   -4.3563 H           1 MNM       0.0562
     23 H12        31.7687   47.6599   -2.0851 H           1 MNM       0.0819
     24 H13        30.4645   48.7732   -1.6529 H           1 MNM       0.0819
     25 H14        29.9139   50.0841   -3.6436 H           1 MNM       0.2094
@<TRIPOS>BOND
     1     1     2   1
     2     1     3   1
     3     1     4   1
     4     2     5   1
     5     2     6   1
     6     3     7   1
     7     3     8   1
     8     6    10   1
     9     8     9   1
    10     8    10   1
    11     9    11   1
    12     1    12   1
    13     2    13   1
    14     3    14   1
    15     4    15   1
    16     5    16   1
    17     6    17   1
    18     6    18   1
    19     7    19   1
    20     8    20   1
    21     9    21   1
    22     9    22   1
    23    10    23   1
    24    10    24   1
    25    11    25   1
@<TRIPOS>SUBSTRUCTURE
     1  MNM      1

