@<TRIPOS>MOLECULE
2vl4_ligand_002
    25    25
SMALL
GAST_HUCK
****
This file was generated by PARSER (from files_GN.cpp)

@<TRIPOS>ATOM
      1 C1         28.7521   47.7279   -2.2841 C.3         1 MNM       0.1497
      2 C2         28.1172   46.3335   -2.5636 C.3         1 MNM       0.1091
      3 C3         28.1718   48.4045   -0.9900 C.3         1 MNM       0.0986
      4 O4         28.5789   48.5900   -3.4120 O.3         1 MNM      -0.3811
      5 O5         28.5224   45.8107   -3.8277 O.3         1 MNM      -0.3504
      6 N6         26.6379   46.4062   -2.5529 N.4         1 MNM       0.2513
      7 O7         28.7542   47.7762    0.1478 O.3         1 MNM      -0.3884
      8 C8         26.6066   48.3323   -0.9101 C.3         1 MNM       0.0509
      9 C9         25.9088   49.4690   -1.7200 C.3         1 MNM       0.0543
     10 C10        26.0717   46.9024   -1.2778 C.3         1 MNM      -0.0236
     11 O11        25.5196   50.5297   -0.8523 O.3         1 MNM      -0.3945
     12 H1         29.8315   47.5929   -2.1519 H           1 MNM       0.0704
     13 H2         28.4505   45.6155   -1.8146 H           1 MNM       0.1211
     14 H3         28.4764   49.4413   -0.9525 H           1 MNM       0.0627
     15 H4         28.8819   49.4665   -3.1095 H           1 MNM       0.2103
     16 H5         28.3747   44.8367   -3.7416 H           1 MNM       0.2155
     17 H6         26.2607   45.4769   -2.7136 H           1 MNM       0.2042
     18 H7         26.3326   47.0210   -3.3181 H           1 MNM       0.2042
     19 H8         28.3767   46.8590    0.1683 H           1 MNM       0.2099
     20 H9         26.3361   48.4782    0.1480 H           1 MNM       0.0401
     21 H10        25.0042   49.1211   -2.2186 H           1 MNM       0.0562
     22 H11        26.5713   49.8819   -2.4877 H           1 MNM       0.0562
     23 H12        26.3120   46.2019   -0.4855 H           1 MNM       0.0819
     24 H13        24.9905   46.9175   -1.3721 H           1 MNM       0.0819
     25 H14        26.3483   50.9925   -0.6194 H           1 MNM       0.2094
@<TRIPOS>BOND
     1     1     2   1
     2     1     3   1
     3     1     4   1
     4     2     5   1
     5     2     6   1
     6     3     7   1
     7     3     8   1
     8     6    10   1
     9     8     9   1
    10     8    10   1
    11     9    11   1
    12     1    12   1
    13     2    13   1
    14     3    14   1
    15     4    15   1
    16     5    16   1
    17     6    17   1
    18     6    18   1
    19     7    19   1
    20     8    20   1
    21     9    21   1
    22     9    22   1
    23    10    23   1
    24    10    24   1
    25    11    25   1
@<TRIPOS>SUBSTRUCTURE
     1  MNM      1

