@<TRIPOS>MOLECULE
2vl4_ligand_004
    25    25
SMALL
GAST_HUCK
****
This file was generated by PARSER (from files_GN.cpp)

@<TRIPOS>ATOM
      1 C1         28.4316   48.2913   -1.9845 C.3         1 MNM       0.1497
      2 C2         27.0499   48.6503   -2.6071 C.3         1 MNM       0.1091
      3 C3         28.6339   46.7470   -1.9070 C.3         1 MNM       0.0986
      4 O4         28.5823   48.8787   -0.6927 O.3         1 MNM      -0.3811
      5 O5         26.7859   50.0520   -2.5890 O.3         1 MNM      -0.3504
      6 N6         25.9434   47.9396   -1.9228 N.4         1 MNM       0.2513
      7 O7         28.9014   46.2591   -3.2251 O.3         1 MNM      -0.3884
      8 C8         27.4066   45.9719   -1.3181 C.3         1 MNM       0.0509
      9 C9         27.3441   45.9862    0.2383 C.3         1 MNM       0.0543
     10 C10        26.0861   46.4690   -1.9797 C.3         1 MNM      -0.0236
     11 O11        28.1684   44.9608    0.7826 O.3         1 MNM      -0.3945
     12 H1         29.2194   48.7181   -2.6131 H           1 MNM       0.0704
     13 H2         27.0574   48.3622   -3.6623 H           1 MNM       0.1211
     14 H3         29.5230   46.5348   -1.3037 H           1 MNM       0.0627
     15 H4         28.5112   49.8425   -0.8423 H           1 MNM       0.2103
     16 H5         26.8453   50.3416   -1.6543 H           1 MNM       0.2155
     17 H6         25.0594   48.1992   -2.3715 H           1 MNM       0.2042
     18 H7         25.9049   48.2334   -0.9438 H           1 MNM       0.2042
     19 H8         29.1733   45.3267   -3.0910 H           1 MNM       0.2099
     20 H9         27.5149   44.9196   -1.6058 H           1 MNM       0.0401
     21 H10        26.3253   45.7956    0.5817 H           1 MNM       0.0562
     22 H11        27.6717   46.9447    0.6458 H           1 MNM       0.0562
     23 H12        26.0734   46.1550   -3.0261 H           1 MNM       0.0819
     24 H13        25.2217   46.0102   -1.4977 H           1 MNM       0.0819
     25 H14        27.7316   44.1210    0.5158 H           1 MNM       0.2094
@<TRIPOS>BOND
     1     1     2   1
     2     1     3   1
     3     1     4   1
     4     2     5   1
     5     2     6   1
     6     3     7   1
     7     3     8   1
     8     6    10   1
     9     8     9   1
    10     8    10   1
    11     9    11   1
    12     1    12   1
    13     2    13   1
    14     3    14   1
    15     4    15   1
    16     5    16   1
    17     6    17   1
    18     6    18   1
    19     7    19   1
    20     8    20   1
    21     9    21   1
    22     9    22   1
    23    10    23   1
    24    10    24   1
    25    11    25   1
@<TRIPOS>SUBSTRUCTURE
     1  MNM      1

