@<TRIPOS>MOLECULE
2vl4_ligand_003
    25    25
SMALL
GAST_HUCK
****
This file was generated by PARSER (from files_GN.cpp)

@<TRIPOS>ATOM
      1 C1         28.9715   47.9487   -3.1012 C.3         1 MNM       0.1497
      2 C2         28.3796   46.8971   -4.0764 C.3         1 MNM       0.1091
      3 C3         28.1744   48.0113   -1.7663 C.3         1 MNM       0.0986
      4 O4         28.9888   49.2092   -3.7655 O.3         1 MNM      -0.3811
      5 O5         27.1106   47.3160   -4.5838 O.3         1 MNM      -0.3504
      6 N6         28.2615   45.5850   -3.4082 N.4         1 MNM       0.2513
      7 O7         28.8313   48.8936   -0.8506 O.3         1 MNM      -0.3884
      8 C8         28.0548   46.5945   -1.1134 C.3         1 MNM       0.0509
      9 C9         27.2081   46.6165    0.1927 C.3         1 MNM       0.0543
     10 C10        27.4822   45.5819   -2.1516 C.3         1 MNM      -0.0236
     11 O11        27.4705   45.4754    0.9989 O.3         1 MNM      -0.3945
     12 H1         30.0038   47.6719   -2.8781 H           1 MNM       0.0704
     13 H2         29.0539   46.7835   -4.9304 H           1 MNM       0.1211
     14 H3         27.1780   48.4080   -1.9668 H           1 MNM       0.0627
     15 H4         29.3831   49.8442   -3.1282 H           1 MNM       0.2103
     16 H5         26.9054   46.6858   -5.3039 H           1 MNM       0.2155
     17 H6         29.2019   45.2558   -3.1882 H           1 MNM       0.2042
     18 H7         27.8308   44.9254   -4.0610 H           1 MNM       0.2042
     19 H8         28.5894   49.7945   -1.1384 H           1 MNM       0.2099
     20 H9         29.0673   46.2675   -0.8478 H           1 MNM       0.0401
     21 H10        26.1378   46.6587   -0.0296 H           1 MNM       0.0562
     22 H11        27.4625   47.4860    0.7984 H           1 MNM       0.0562
     23 H12        27.5211   44.5741   -1.7323 H           1 MNM       0.0819
     24 H13        26.4394   45.8183   -2.3793 H           1 MNM       0.0819
     25 H14        26.9962   44.7265    0.5712 H           1 MNM       0.2094
@<TRIPOS>BOND
     1     1     2   1
     2     1     3   1
     3     1     4   1
     4     2     5   1
     5     2     6   1
     6     3     7   1
     7     3     8   1
     8     6    10   1
     9     8     9   1
    10     8    10   1
    11     9    11   1
    12     1    12   1
    13     2    13   1
    14     3    14   1
    15     4    15   1
    16     5    16   1
    17     6    17   1
    18     6    18   1
    19     7    19   1
    20     8    20   1
    21     9    21   1
    22     9    22   1
    23    10    23   1
    24    10    24   1
    25    11    25   1
@<TRIPOS>SUBSTRUCTURE
     1  MNM      1

