@<TRIPOS>MOLECULE
2vo5_ligand_026
    42    44
SMALL
GAST_HUCK
****
This file was generated by PARSER (from files_GN.cpp)

@<TRIPOS>ATOM
      1 O2         29.2424   53.3287   -8.7195 O.3         1 VBZ      -0.3835
      2 C2         30.5885   53.7404   -8.4513 C.3         1 VBZ       0.1262
      3 C3         30.6812   55.1521   -7.7225 C.3         1 VBZ       0.1202
      4 O3         29.3837   55.7144   -7.4444 O.3         1 VBZ      -0.3859
      5 C4         31.5563   55.0535   -6.4124 C.3         1 VBZ       0.1387
      6 O4         31.6055   56.3209   -5.7457 O.3         1 VBZ      -0.3803
      7 C5         32.9714   54.5216   -6.8614 C.3         1 VBZ       0.0237
      8 C6         34.1139   54.6527   -5.7939 C.3         1 VBZ       0.0501
      9 O6         33.7087   54.4628   -4.4311 O.3         1 VBZ      -0.3946
     10 C7         32.8156   53.0846   -7.4728 C.3         1 VBZ       0.0007
     11 C8         30.8463   53.9973   -5.5042 C.3         1 VBZ       0.0023
     12 N1         30.6308   52.6859   -6.2395 N.4         1 VBZ       0.2533
     13 C1         31.3208   52.6592   -7.5794 C.3         1 VBZ       0.0102
     14 C9         30.7214   51.4509   -5.3885 C.3         1 VBZ       0.0024
     15 C10        32.0709   51.0521   -4.8543 C.ar        1 VBZ       0.0014
     16 C11        32.5445   51.5453   -3.6143 C.ar        1 VBZ      -0.0553
     17 C12        33.8139   51.1958   -3.1239 C.ar        1 VBZ      -0.0684
     18 C15        32.8713   50.0909   -5.5309 C.ar        1 VBZ      -0.0553
     19 C14        34.1462   49.7311   -5.0368 C.ar        1 VBZ      -0.0684
     20 C13        34.6212   50.3081   -3.8455 C.ar        1 VBZ      -0.0687
     21 H1         29.3326   52.6365   -9.4197 H           1 VBZ       0.2102
     22 H2         31.0865   53.7900   -9.4229 H           1 VBZ       0.0677
     23 H3         31.1496   55.8499   -8.4244 H           1 VBZ       0.0652
     24 H4         28.9062   55.0277   -6.9222 H           1 VBZ       0.2100
     25 H5         32.1749   56.1731   -4.9526 H           1 VBZ       0.2105
     26 H6         33.3036   55.1844   -7.6724 H           1 VBZ       0.0355
     27 H7         34.9099   53.9102   -6.0083 H           1 VBZ       0.0561
     28 H8         34.5680   55.6508   -5.8440 H           1 VBZ       0.0561
     29 H9         34.5652   54.5197   -3.9217 H           1 VBZ       0.2094
     30 H10        33.3516   52.3510   -6.8736 H           1 VBZ       0.0325
     31 H11        33.2614   53.0757   -8.4705 H           1 VBZ       0.0325
     32 H12        29.8774   54.3841   -5.1791 H           1 VBZ       0.0844
     33 H13        31.4237   53.8481   -4.6040 H           1 VBZ       0.0844
     34 H14        29.6379   52.7208   -6.4729 H           1 VBZ       0.2053
     35 H15        31.2287   51.6768   -8.0488 H           1 VBZ       0.0878
     36 H16        30.3106   50.6177   -5.9737 H           1 VBZ       0.0980
     37 H17        30.0474   51.5816   -4.5486 H           1 VBZ       0.0980
     38 H18        31.9614   52.1814   -3.0614 H           1 VBZ       0.0558
     39 H19        34.1508   51.5927   -2.2521 H           1 VBZ       0.0599
     40 H20        32.5403   49.6581   -6.4065 H           1 VBZ       0.0558
     41 H21        34.7263   49.0753   -5.5645 H           1 VBZ       0.0599
     42 H22        35.5449   50.0507   -3.4957 H           1 VBZ       0.0559
@<TRIPOS>BOND
     1     1     2   1
     2     2     3   1
     3     2    13   1
     4     3     4   1
     5     3     5   1
     6     5     6   1
     7     5     7   1
     8     5    11   1
     9     7     8   1
    10     7    10   1
    11     8     9   1
    12    10    13   1
    13    11    12   1
    14    12    13   1
    15    12    14   1
    16    14    15   1
    17    15    16  ar
    18    15    18  ar
    19    16    17  ar
    20    17    20  ar
    21    18    19  ar
    22    19    20  ar
    23     1    21   1
    24     2    22   1
    25     3    23   1
    26     4    24   1
    27     6    25   1
    28     7    26   1
    29     8    27   1
    30     8    28   1
    31     9    29   1
    32    10    30   1
    33    10    31   1
    34    11    32   1
    35    11    33   1
    36    12    34   1
    37    13    35   1
    38    14    36   1
    39    14    37   1
    40    16    38   1
    41    17    39   1
    42    18    40   1
    43    19    41   1
    44    20    42   1
@<TRIPOS>SUBSTRUCTURE
     1  VBZ      2

