@<TRIPOS>MOLECULE
2vo5_ligand_033
    42    44
SMALL
GAST_HUCK
****
This file was generated by PARSER (from files_GN.cpp)

@<TRIPOS>ATOM
      1 O2         37.8982   48.8823   -5.2776 O.3         1 VBZ      -0.3835
      2 C2         36.7504   48.1651   -4.8237 C.3         1 VBZ       0.1262
      3 C3         36.7061   48.0582   -3.2550 C.3         1 VBZ       0.1202
      4 O3         37.7531   48.8165   -2.6340 O.3         1 VBZ      -0.3859
      5 C4         35.3095   48.5334   -2.7118 C.3         1 VBZ       0.1387
      6 O4         35.2830   48.4304   -1.2868 O.3         1 VBZ      -0.3803
      7 C5         34.1762   47.6773   -3.4015 C.3         1 VBZ       0.0237
      8 C6         32.7350   47.9170   -2.8533 C.3         1 VBZ       0.0501
      9 O6         31.8056   46.9616   -3.3629 O.3         1 VBZ      -0.3946
     10 C7         34.2440   47.8695   -4.9667 C.3         1 VBZ       0.0007
     11 C8         35.1258   50.0153   -3.1640 C.3         1 VBZ       0.0023
     12 N1         35.2924   50.1572   -4.6588 N.4         1 VBZ       0.2533
     13 C1         35.4288   48.8195   -5.3513 C.3         1 VBZ       0.0102
     14 C9         34.3159   51.1151   -5.2755 C.3         1 VBZ       0.0024
     15 C10        34.7652   51.6009   -6.6031 C.ar        1 VBZ       0.0014
     16 C11        34.0255   51.3272   -7.7785 C.ar        1 VBZ      -0.0553
     17 C12        34.4680   51.8033   -9.0289 C.ar        1 VBZ      -0.0684
     18 C15        35.9485   52.3680   -6.7061 C.ar        1 VBZ      -0.0553
     19 C14        36.3909   52.8441   -7.9541 C.ar        1 VBZ      -0.0684
     20 C13        35.6535   52.5579   -9.1167 C.ar        1 VBZ      -0.0687
     21 H1         37.6183   49.3113   -6.1163 H           1 VBZ       0.2102
     22 H2         36.8426   47.1631   -5.2511 H           1 VBZ       0.0677
     23 H3         36.8651   47.0154   -2.9608 H           1 VBZ       0.0652
     24 H4         38.4976   48.1948   -2.4806 H           1 VBZ       0.2100
     25 H5         35.8055   47.6248   -1.0857 H           1 VBZ       0.2105
     26 H6         34.3962   46.6324   -3.1689 H           1 VBZ       0.0355
     27 H7         32.7224   47.8585   -1.7646 H           1 VBZ       0.0561
     28 H8         32.3791   48.9057   -3.1401 H           1 VBZ       0.0561
     29 H9         31.8152   46.2015   -2.7462 H           1 VBZ       0.2094
     30 H10        33.3172   48.2863   -5.3617 H           1 VBZ       0.0325
     31 H11        34.3789   46.8971   -5.4537 H           1 VBZ       0.0325
     32 H12        35.8749   50.6434   -2.6753 H           1 VBZ       0.0844
     33 H13        34.1562   50.3757   -2.8145 H           1 VBZ       0.0844
     34 H14        36.2053   50.5960   -4.7754 H           1 VBZ       0.2053
     35 H15        35.4850   48.9233   -6.4359 H           1 VBZ       0.0878
     36 H16        34.2154   51.9950   -4.6347 H           1 VBZ       0.0980
     37 H17        33.3262   50.6566   -5.3314 H           1 VBZ       0.0980
     38 H18        33.1667   50.7751   -7.7345 H           1 VBZ       0.0558
     39 H19        33.9332   51.5989   -9.8738 H           1 VBZ       0.0599
     40 H20        36.4922   52.5954   -5.8701 H           1 VBZ       0.0558
     41 H21        37.2493   53.3958   -8.0146 H           1 VBZ       0.0599
     42 H22        35.9777   52.9017  -10.0223 H           1 VBZ       0.0559
@<TRIPOS>BOND
     1     1     2   1
     2     2     3   1
     3     2    13   1
     4     3     4   1
     5     3     5   1
     6     5     6   1
     7     5     7   1
     8     5    11   1
     9     7     8   1
    10     7    10   1
    11     8     9   1
    12    10    13   1
    13    11    12   1
    14    12    13   1
    15    12    14   1
    16    14    15   1
    17    15    16  ar
    18    15    18  ar
    19    16    17  ar
    20    17    20  ar
    21    18    19  ar
    22    19    20  ar
    23     1    21   1
    24     2    22   1
    25     3    23   1
    26     4    24   1
    27     6    25   1
    28     7    26   1
    29     8    27   1
    30     8    28   1
    31     9    29   1
    32    10    30   1
    33    10    31   1
    34    11    32   1
    35    11    33   1
    36    12    34   1
    37    13    35   1
    38    14    36   1
    39    14    37   1
    40    16    38   1
    41    17    39   1
    42    18    40   1
    43    19    41   1
    44    20    42   1
@<TRIPOS>SUBSTRUCTURE
     1  VBZ      2

