@<TRIPOS>MOLECULE
2vo5_ligand_053
    42    44
SMALL
GAST_HUCK
****
This file was generated by PARSER (from files_GN.cpp)

@<TRIPOS>ATOM
      1 O2         29.3933   49.4465   -5.0288 O.3         1 VBZ      -0.3835
      2 C2         29.2283   49.3518   -3.6112 C.3         1 VBZ       0.1262
      3 C3         27.9008   48.6058   -3.2107 C.3         1 VBZ       0.1202
      4 O3         27.1032   48.2645   -4.3484 O.3         1 VBZ      -0.3859
      5 C4         28.2356   47.3451   -2.3401 C.3         1 VBZ       0.1387
      6 O4         27.0348   46.6412   -2.0164 O.3         1 VBZ      -0.3803
      7 C5         28.9753   47.8485   -1.0416 C.3         1 VBZ       0.0237
      8 C6         29.2123   46.7663    0.0517 C.3         1 VBZ       0.0501
      9 O6         27.9754   46.3366    0.6225 O.3         1 VBZ      -0.3946
     10 C7         30.3100   48.5779   -1.4464 C.3         1 VBZ       0.0007
     11 C8         29.2262   46.4593   -3.1716 C.3         1 VBZ       0.0023
     12 N1         30.4672   47.2331   -3.5823 N.4         1 VBZ       0.2533
     13 C1         30.4686   48.6278   -3.0005 C.3         1 VBZ       0.0102
     14 C9         31.7311   46.4498   -3.4306 C.3         1 VBZ       0.0024
     15 C10        32.9618   47.1409   -3.9270 C.ar        1 VBZ       0.0014
     16 C11        33.8254   47.7962   -3.0248 C.ar        1 VBZ      -0.0553
     17 C12        34.9683   48.4816   -3.4825 C.ar        1 VBZ      -0.0684
     18 C15        33.2853   47.1499   -5.3017 C.ar        1 VBZ      -0.0553
     19 C14        34.4467   47.8115   -5.7621 C.ar        1 VBZ      -0.0684
     20 C13        35.2835   48.4816   -4.8513 C.ar        1 VBZ      -0.0687
     21 H1         30.2104   49.9724   -5.1605 H           1 VBZ       0.2102
     22 H2         29.1853   50.3753   -3.2292 H           1 VBZ       0.0677
     23 H3         27.2823   49.2827   -2.6187 H           1 VBZ       0.0652
     24 H4         27.6644   47.6888   -4.9065 H           1 VBZ       0.2100
     25 H5         26.6417   46.3631   -2.8883 H           1 VBZ       0.2105
     26 H6         28.3280   48.6042   -0.5638 H           1 VBZ       0.0355
     27 H7         29.7239   45.9044   -0.3575 H           1 VBZ       0.0561
     28 H8         29.8289   47.1689    0.8607 H           1 VBZ       0.0561
     29 H9         27.6774   47.1075    1.1752 H           1 VBZ       0.2094
     30 H10        31.1835   48.0785   -1.0264 H           1 VBZ       0.0325
     31 H11        30.3113   49.5978   -1.0491 H           1 VBZ       0.0325
     32 H12        28.7337   46.1008   -4.0794 H           1 VBZ       0.0844
     33 H13        29.4670   45.5681   -2.5930 H           1 VBZ       0.0844
     34 H14        30.3707   47.3732   -4.5913 H           1 VBZ       0.2053
     35 H15        31.3652   49.1888   -3.2688 H           1 VBZ       0.0878
     36 H16        31.6247   45.5149   -3.9824 H           1 VBZ       0.0980
     37 H17        31.8650   46.1767   -2.3853 H           1 VBZ       0.0980
     38 H18        33.6211   47.8015   -2.0251 H           1 VBZ       0.0558
     39 H19        35.5695   48.9696   -2.8164 H           1 VBZ       0.0599
     40 H20        32.6915   46.6678   -5.9872 H           1 VBZ       0.0558
     41 H21        34.6813   47.8117   -6.7599 H           1 VBZ       0.0599
     42 H22        36.1075   48.9831   -5.1819 H           1 VBZ       0.0559
@<TRIPOS>BOND
     1     1     2   1
     2     2     3   1
     3     2    13   1
     4     3     4   1
     5     3     5   1
     6     5     6   1
     7     5     7   1
     8     5    11   1
     9     7     8   1
    10     7    10   1
    11     8     9   1
    12    10    13   1
    13    11    12   1
    14    12    13   1
    15    12    14   1
    16    14    15   1
    17    15    16  ar
    18    15    18  ar
    19    16    17  ar
    20    17    20  ar
    21    18    19  ar
    22    19    20  ar
    23     1    21   1
    24     2    22   1
    25     3    23   1
    26     4    24   1
    27     6    25   1
    28     7    26   1
    29     8    27   1
    30     8    28   1
    31     9    29   1
    32    10    30   1
    33    10    31   1
    34    11    32   1
    35    11    33   1
    36    12    34   1
    37    13    35   1
    38    14    36   1
    39    14    37   1
    40    16    38   1
    41    17    39   1
    42    18    40   1
    43    19    41   1
    44    20    42   1
@<TRIPOS>SUBSTRUCTURE
     1  VBZ      2

