@<TRIPOS>MOLECULE
2vo5_ligand_016
    42    44
SMALL
GAST_HUCK
****
This file was generated by PARSER (from files_GN.cpp)

@<TRIPOS>ATOM
      1 O2         27.0012   44.9066   -3.2399 O.3         1 VBZ      -0.3835
      2 C2         26.8356   45.9963   -2.3361 C.3         1 VBZ       0.1262
      3 C3         27.5171   45.7291   -0.9396 C.3         1 VBZ       0.1202
      4 O3         28.2620   44.5089   -0.8937 O.3         1 VBZ      -0.3859
      5 C4         28.4524   46.9309   -0.5700 C.3         1 VBZ       0.1387
      6 O4         29.0797   46.7136    0.7005 O.3         1 VBZ      -0.3803
      7 C5         27.5403   48.2165   -0.5634 C.3         1 VBZ       0.0237
      8 C6         28.1451   49.4561    0.1482 C.3         1 VBZ       0.0501
      9 O6         29.4407   49.8411   -0.2939 O.3         1 VBZ      -0.3946
     10 C7         27.0091   48.5084   -2.0124 C.3         1 VBZ       0.0007
     11 C8         29.5100   47.0464   -1.7239 C.3         1 VBZ       0.0023
     12 N1         28.8716   47.2190   -3.0868 N.4         1 VBZ       0.2533
     13 C1         27.3704   47.3276   -2.9728 C.3         1 VBZ       0.0102
     14 C9         29.5152   48.2565   -3.9619 C.3         1 VBZ       0.0024
     15 C10        30.9310   47.9431   -4.3209 C.ar        1 VBZ       0.0014
     16 C11        32.0012   48.4004   -3.5117 C.ar        1 VBZ      -0.0553
     17 C12        33.3368   48.1032   -3.8396 C.ar        1 VBZ      -0.0684
     18 C15        31.2420   47.2061   -5.4864 C.ar        1 VBZ      -0.0553
     19 C14        32.5820   46.9324   -5.8335 C.ar        1 VBZ      -0.0684
     20 C13        33.6278   47.3828   -5.0111 C.ar        1 VBZ      -0.0687
     21 H1         27.9380   44.6346   -3.1831 H           1 VBZ       0.2102
     22 H2         25.7559   46.0941   -2.1910 H           1 VBZ       0.0677
     23 H3         26.7378   45.6275   -0.1762 H           1 VBZ       0.0652
     24 H4         27.5701   43.8171   -0.8980 H           1 VBZ       0.2100
     25 H5         30.0231   46.5192    0.5072 H           1 VBZ       0.2105
     26 H6         26.6617   47.9794    0.0463 H           1 VBZ       0.0355
     27 H7         28.2282   49.2461    1.2167 H           1 VBZ       0.0561
     28 H8         27.4750   50.3036    0.0297 H           1 VBZ       0.0561
     29 H9         29.3423   50.1260   -1.2261 H           1 VBZ       0.2094
     30 H10        27.4270   49.4379   -2.4016 H           1 VBZ       0.0325
     31 H11        25.9231   48.6389   -1.9863 H           1 VBZ       0.0325
     32 H12        30.1864   47.8593   -1.4816 H           1 VBZ       0.0844
     33 H13        30.1246   46.1449   -1.7579 H           1 VBZ       0.0844
     34 H14        29.0312   46.3373   -3.5765 H           1 VBZ       0.2053
     35 H15        26.8989   47.4770   -3.9488 H           1 VBZ       0.0878
     36 H16        28.9437   48.3521   -4.8869 H           1 VBZ       0.0980
     37 H17        29.4756   49.2406   -3.4823 H           1 VBZ       0.0980
     38 H18        31.8163   48.9550   -2.6740 H           1 VBZ       0.0558
     39 H19        34.0963   48.4193   -3.2324 H           1 VBZ       0.0599
     40 H20        30.4942   46.8686   -6.1009 H           1 VBZ       0.0558
     41 H21        32.7942   46.4037   -6.6829 H           1 VBZ       0.0599
     42 H22        34.5982   47.1868   -5.2625 H           1 VBZ       0.0559
@<TRIPOS>BOND
     1     1     2   1
     2     2     3   1
     3     2    13   1
     4     3     4   1
     5     3     5   1
     6     5     6   1
     7     5     7   1
     8     5    11   1
     9     7     8   1
    10     7    10   1
    11     8     9   1
    12    10    13   1
    13    11    12   1
    14    12    13   1
    15    12    14   1
    16    14    15   1
    17    15    16  ar
    18    15    18  ar
    19    16    17  ar
    20    17    20  ar
    21    18    19  ar
    22    19    20  ar
    23     1    21   1
    24     2    22   1
    25     3    23   1
    26     4    24   1
    27     6    25   1
    28     7    26   1
    29     8    27   1
    30     8    28   1
    31     9    29   1
    32    10    30   1
    33    10    31   1
    34    11    32   1
    35    11    33   1
    36    12    34   1
    37    13    35   1
    38    14    36   1
    39    14    37   1
    40    16    38   1
    41    17    39   1
    42    18    40   1
    43    19    41   1
    44    20    42   1
@<TRIPOS>SUBSTRUCTURE
     1  VBZ      2

