@<TRIPOS>MOLECULE
2vo5_ligand_039
    42    44
SMALL
GAST_HUCK
****
This file was generated by PARSER (from files_GN.cpp)

@<TRIPOS>ATOM
      1 O2         31.5559   49.8241   -1.9888 O.3         1 VBZ      -0.3835
      2 C2         32.2411   49.0393   -2.9671 C.3         1 VBZ       0.1262
      3 C3         31.5035   47.6686   -3.1832 C.3         1 VBZ       0.1202
      4 O3         30.3655   47.4955   -2.3389 O.3         1 VBZ      -0.3859
      5 C4         31.0872   47.5176   -4.6853 C.3         1 VBZ       0.1387
      6 O4         30.3358   46.3177   -4.8773 O.3         1 VBZ      -0.3803
      7 C5         32.4139   47.5337   -5.5399 C.3         1 VBZ       0.0237
      8 C6         32.2535   47.1062   -7.0293 C.3         1 VBZ       0.0501
      9 O6         31.9343   45.7244   -7.1215 O.3         1 VBZ      -0.3946
     10 C7         33.1350   48.9184   -5.3487 C.3         1 VBZ       0.0007
     11 C8         30.2349   48.7779   -5.0739 C.3         1 VBZ       0.0023
     12 N1         30.9567   50.0808   -4.7911 N.4         1 VBZ       0.2533
     13 C1         32.3645   49.8155   -4.3191 C.3         1 VBZ       0.0102
     14 C9         30.8353   51.1188   -5.8685 C.3         1 VBZ       0.0024
     15 C10        31.1417   52.5018   -5.4029 C.ar        1 VBZ       0.0014
     16 C11        32.4230   53.0690   -5.5802 C.ar        1 VBZ      -0.0553
     17 C12        32.7125   54.3630   -5.1236 C.ar        1 VBZ      -0.0684
     18 C15        30.1303   53.2951   -4.8046 C.ar        1 VBZ      -0.0553
     19 C14        30.4029   54.6075   -4.3915 C.ar        1 VBZ      -0.0684
     20 C13        31.6935   55.1440   -4.5315 C.ar        1 VBZ      -0.0687
     21 H1         32.0582   50.6501   -1.8567 H           1 VBZ       0.2102
     22 H2         33.2392   48.8453   -2.5701 H           1 VBZ       0.0677
     23 H3         32.1876   46.8511   -2.9365 H           1 VBZ       0.0652
     24 H4         30.7293   47.4454   -1.4392 H           1 VBZ       0.2100
     25 H5         30.8850   45.5947   -4.5152 H           1 VBZ       0.2105
     26 H6         33.0849   46.7744   -5.1275 H           1 VBZ       0.0355
     27 H7         31.4812   47.6733   -7.5476 H           1 VBZ       0.0561
     28 H8         33.1840   47.2520   -7.5717 H           1 VBZ       0.0561
     29 H9         32.0186   45.4720   -8.0733 H           1 VBZ       0.2094
     30 H10        33.2336   49.4560   -6.2902 H           1 VBZ       0.0325
     31 H11        34.1516   48.7595   -4.9839 H           1 VBZ       0.0325
     32 H12        29.3222   48.7776   -4.4837 H           1 VBZ       0.0844
     33 H13        29.9176   48.7022   -6.1152 H           1 VBZ       0.0844
     34 H14        30.4732   50.4904   -3.9830 H           1 VBZ       0.2053
     35 H15        32.9124   50.7354   -4.1287 H           1 VBZ       0.0878
     36 H16        29.8139   51.1203   -6.2433 H           1 VBZ       0.0980
     37 H17        31.4489   50.8681   -6.7344 H           1 VBZ       0.0980
     38 H18        33.1732   52.5228   -6.0177 H           1 VBZ       0.0558
     39 H19        33.6492   54.7526   -5.2285 H           1 VBZ       0.0599
     40 H20        29.1873   52.9233   -4.6785 H           1 VBZ       0.0558
     41 H21        29.6598   55.1758   -3.9740 H           1 VBZ       0.0599
     42 H22        31.8975   56.0912   -4.2145 H           1 VBZ       0.0559
@<TRIPOS>BOND
     1     1     2   1
     2     2     3   1
     3     2    13   1
     4     3     4   1
     5     3     5   1
     6     5     6   1
     7     5     7   1
     8     5    11   1
     9     7     8   1
    10     7    10   1
    11     8     9   1
    12    10    13   1
    13    11    12   1
    14    12    13   1
    15    12    14   1
    16    14    15   1
    17    15    16  ar
    18    15    18  ar
    19    16    17  ar
    20    17    20  ar
    21    18    19  ar
    22    19    20  ar
    23     1    21   1
    24     2    22   1
    25     3    23   1
    26     4    24   1
    27     6    25   1
    28     7    26   1
    29     8    27   1
    30     8    28   1
    31     9    29   1
    32    10    30   1
    33    10    31   1
    34    11    32   1
    35    11    33   1
    36    12    34   1
    37    13    35   1
    38    14    36   1
    39    14    37   1
    40    16    38   1
    41    17    39   1
    42    18    40   1
    43    19    41   1
    44    20    42   1
@<TRIPOS>SUBSTRUCTURE
     1  VBZ      2

