@<TRIPOS>MOLECULE
2vo5_ligand_036
    42    44
SMALL
GAST_HUCK
****
This file was generated by PARSER (from files_GN.cpp)

@<TRIPOS>ATOM
      1 O2         31.3885   47.1704   -2.6792 O.3         1 VBZ      -0.3835
      2 C2         31.3052   47.3247   -4.1043 C.3         1 VBZ       0.1262
      3 C3         31.6246   46.0166   -4.9179 C.3         1 VBZ       0.1202
      4 O3         31.7765   44.8893   -4.0417 O.3         1 VBZ      -0.3859
      5 C4         30.5094   45.7298   -5.9861 C.3         1 VBZ       0.1387
      6 O4         30.8512   44.5575   -6.7305 O.3         1 VBZ      -0.3803
      7 C5         30.3446   47.0029   -6.9057 C.3         1 VBZ       0.0237
      8 C6         29.3790   46.8458   -8.1290 C.3         1 VBZ       0.0501
      9 O6         29.4599   45.5798   -8.7826 O.3         1 VBZ      -0.3946
     10 C7         29.9338   48.2339   -6.0149 C.3         1 VBZ       0.0007
     11 C8         29.1697   45.5522   -5.1955 C.3         1 VBZ       0.0023
     12 N1         28.9310   46.7110   -4.2453 N.4         1 VBZ       0.2533
     13 C1         29.8894   47.8523   -4.4982 C.3         1 VBZ       0.0102
     14 C9         27.4757   47.0562   -4.1370 C.3         1 VBZ       0.0024
     15 C10        27.0692   48.0895   -3.1410 C.ar        1 VBZ       0.0014
     16 C11        25.8543   48.7959   -3.3566 C.ar        1 VBZ      -0.0553
     17 C12        25.4175   49.7700   -2.4429 C.ar        1 VBZ      -0.0684
     18 C15        27.7907   48.3415   -1.9545 C.ar        1 VBZ      -0.0553
     19 C14        27.3618   49.3304   -1.0486 C.ar        1 VBZ      -0.0684
     20 C13        26.1800   50.0532   -1.3000 C.ar        1 VBZ      -0.0687
     21 H1         31.2500   46.2093   -2.4965 H           1 VBZ       0.2102
     22 H2         32.0436   48.0864   -4.3696 H           1 VBZ       0.0677
     23 H3         32.5705   46.1496   -5.4502 H           1 VBZ       0.0652
     24 H4         31.3445   44.1279   -4.5063 H           1 VBZ       0.2100
     25 H5         31.7571   44.7387   -7.0819 H           1 VBZ       0.2105
     26 H6         31.3277   47.2118   -7.3350 H           1 VBZ       0.0355
     27 H7         28.3404   46.9843   -7.8156 H           1 VBZ       0.0561
     28 H8         29.6036   47.6177   -8.8724 H           1 VBZ       0.0561
     29 H9         29.1342   44.9435   -8.1103 H           1 VBZ       0.2094
     30 H10        28.9543   48.6214   -6.2881 H           1 VBZ       0.0325
     31 H11        30.6380   49.0577   -6.1623 H           1 VBZ       0.0325
     32 H12        29.2093   44.6290   -4.6125 H           1 VBZ       0.0844
     33 H13        28.3486   45.4088   -5.9141 H           1 VBZ       0.0844
     34 H14        29.1728   46.3499   -3.3284 H           1 VBZ       0.2053
     35 H15        29.6602   48.7411   -3.9078 H           1 VBZ       0.0878
     36 H16        26.9367   46.1461   -3.8586 H           1 VBZ       0.0980
     37 H17        27.1112   47.3367   -5.1344 H           1 VBZ       0.0980
     38 H18        25.2879   48.6099   -4.1968 H           1 VBZ       0.0558
     39 H19        24.5382   50.2627   -2.6090 H           1 VBZ       0.0599
     40 H20        28.6419   47.8180   -1.7378 H           1 VBZ       0.0558
     41 H21        27.9077   49.5253   -0.1976 H           1 VBZ       0.0599
     42 H22        25.8598   50.7613   -0.6407 H           1 VBZ       0.0559
@<TRIPOS>BOND
     1     1     2   1
     2     2     3   1
     3     2    13   1
     4     3     4   1
     5     3     5   1
     6     5     6   1
     7     5     7   1
     8     5    11   1
     9     7     8   1
    10     7    10   1
    11     8     9   1
    12    10    13   1
    13    11    12   1
    14    12    13   1
    15    12    14   1
    16    14    15   1
    17    15    16  ar
    18    15    18  ar
    19    16    17  ar
    20    17    20  ar
    21    18    19  ar
    22    19    20  ar
    23     1    21   1
    24     2    22   1
    25     3    23   1
    26     4    24   1
    27     6    25   1
    28     7    26   1
    29     8    27   1
    30     8    28   1
    31     9    29   1
    32    10    30   1
    33    10    31   1
    34    11    32   1
    35    11    33   1
    36    12    34   1
    37    13    35   1
    38    14    36   1
    39    14    37   1
    40    16    38   1
    41    17    39   1
    42    18    40   1
    43    19    41   1
    44    20    42   1
@<TRIPOS>SUBSTRUCTURE
     1  VBZ      2

