@<TRIPOS>MOLECULE
2vo5_ligand_034
    42    44
SMALL
GAST_HUCK
****
This file was generated by PARSER (from files_GN.cpp)

@<TRIPOS>ATOM
      1 O2         33.1672   46.3655   -2.4115 O.3         1 VBZ      -0.3835
      2 C2         32.8067   47.6120   -3.0144 C.3         1 VBZ       0.1262
      3 C3         33.2092   47.7122   -4.5346 C.3         1 VBZ       0.1202
      4 O3         33.7313   46.4831   -5.0452 O.3         1 VBZ      -0.3859
      5 C4         31.9762   48.1872   -5.3825 C.3         1 VBZ       0.1387
      6 O4         32.3396   48.2793   -6.7720 O.3         1 VBZ      -0.3803
      7 C5         31.5031   49.5800   -4.7930 C.3         1 VBZ       0.0237
      8 C6         30.4907   50.3580   -5.6804 C.3         1 VBZ       0.0501
      9 O6         31.1468   51.0563   -6.7493 O.3         1 VBZ      -0.3946
     10 C7         30.9998   49.3807   -3.3075 C.3         1 VBZ       0.0007
     11 C8         30.8454   47.1095   -5.1564 C.3         1 VBZ       0.0023
     12 N1         30.4954   46.9376   -3.6875 N.4         1 VBZ       0.2533
     13 C1         31.2767   47.9151   -2.8274 C.3         1 VBZ       0.0102
     14 C9         29.0094   46.8953   -3.4669 C.3         1 VBZ       0.0024
     15 C10        28.5717   46.9231   -2.0426 C.ar        1 VBZ       0.0014
     16 C11        28.5044   48.1630   -1.3443 C.ar        1 VBZ      -0.0553
     17 C12        28.0968   48.1958    0.0065 C.ar        1 VBZ      -0.0684
     18 C15        28.1940   45.7340   -1.3707 C.ar        1 VBZ      -0.0553
     19 C14        27.7743   45.7762   -0.0275 C.ar        1 VBZ      -0.0684
     20 C13        27.7388   47.0097    0.6694 C.ar        1 VBZ      -0.0687
     21 H1         32.3552   45.8143   -2.3857 H           1 VBZ       0.2102
     22 H2         33.3778   48.3675   -2.4701 H           1 VBZ       0.0677
     23 H3         34.0120   48.4531   -4.6454 H           1 VBZ       0.0652
     24 H4         34.0675   46.6965   -5.9445 H           1 VBZ       0.2100
     25 H5         31.5086   48.4977   -7.2403 H           1 VBZ       0.2105
     26 H6         32.3913   50.2210   -4.7380 H           1 VBZ       0.0355
     27 H7         29.7719   49.6658   -6.1224 H           1 VBZ       0.0561
     28 H8         29.9424   51.0918   -5.0706 H           1 VBZ       0.0561
     29 H9         31.6588   51.7715   -6.2904 H           1 VBZ       0.2094
     30 H10        29.9218   49.5604   -3.2031 H           1 VBZ       0.0325
     31 H11        31.5263   50.0798   -2.6408 H           1 VBZ       0.0325
     32 H12        31.1873   46.1370   -5.5319 H           1 VBZ       0.0844
     33 H13        29.9754   47.3834   -5.7692 H           1 VBZ       0.0844
     34 H14        30.8280   46.0061   -3.4091 H           1 VBZ       0.2053
     35 H15        31.0298   47.8091   -1.7660 H           1 VBZ       0.0878
     36 H16        28.6216   45.9760   -3.9127 H           1 VBZ       0.0980
     37 H17        28.5291   47.7148   -4.0129 H           1 VBZ       0.0980
     38 H18        28.7821   49.0398   -1.8249 H           1 VBZ       0.0558
     39 H19        28.0535   49.0832    0.4980 H           1 VBZ       0.0599
     40 H20        28.2242   44.8300   -1.8580 H           1 VBZ       0.0558
     41 H21        27.4977   44.9120    0.4555 H           1 VBZ       0.0599
     42 H22        27.4435   47.0303    1.6513 H           1 VBZ       0.0559
@<TRIPOS>BOND
     1     1     2   1
     2     2     3   1
     3     2    13   1
     4     3     4   1
     5     3     5   1
     6     5     6   1
     7     5     7   1
     8     5    11   1
     9     7     8   1
    10     7    10   1
    11     8     9   1
    12    10    13   1
    13    11    12   1
    14    12    13   1
    15    12    14   1
    16    14    15   1
    17    15    16  ar
    18    15    18  ar
    19    16    17  ar
    20    17    20  ar
    21    18    19  ar
    22    19    20  ar
    23     1    21   1
    24     2    22   1
    25     3    23   1
    26     4    24   1
    27     6    25   1
    28     7    26   1
    29     8    27   1
    30     8    28   1
    31     9    29   1
    32    10    30   1
    33    10    31   1
    34    11    32   1
    35    11    33   1
    36    12    34   1
    37    13    35   1
    38    14    36   1
    39    14    37   1
    40    16    38   1
    41    17    39   1
    42    18    40   1
    43    19    41   1
    44    20    42   1
@<TRIPOS>SUBSTRUCTURE
     1  VBZ      2

