@<TRIPOS>MOLECULE
2vo5_ligand_007
    42    44
SMALL
GAST_HUCK
****
This file was generated by PARSER (from files_GN.cpp)

@<TRIPOS>ATOM
      1 O2         27.3450   49.4708    0.4035 O.3         1 VBZ      -0.3835
      2 C2         27.1714   48.2665   -0.3410 C.3         1 VBZ       0.1262
      3 C3         26.1361   48.3994   -1.5173 C.3         1 VBZ       0.1202
      4 O3         25.6195   49.7317   -1.6090 O.3         1 VBZ      -0.3859
      5 C4         26.7791   47.9381   -2.8750 C.3         1 VBZ       0.1387
      6 O4         25.8123   48.1195   -3.9174 O.3         1 VBZ      -0.3803
      7 C5         27.2469   46.4372   -2.7127 C.3         1 VBZ       0.0237
      8 C6         27.7761   45.7714   -4.0223 C.3         1 VBZ       0.0501
      9 O6         29.1842   45.8715   -4.2150 O.3         1 VBZ      -0.3946
     10 C7         28.2504   46.3252   -1.4967 C.3         1 VBZ       0.0007
     11 C8         28.0572   48.8105   -3.1092 C.3         1 VBZ       0.0023
     12 N1         29.0341   48.7055   -1.9583 N.4         1 VBZ       0.2533
     13 C1         28.5394   47.7441   -0.8906 C.3         1 VBZ       0.0102
     14 C9         30.4772   48.4906   -2.3348 C.3         1 VBZ       0.0024
     15 C10        30.9697   49.3354   -3.4608 C.ar        1 VBZ       0.0014
     16 C11        30.7452   48.9451   -4.8041 C.ar        1 VBZ      -0.0553
     17 C12        31.1665   49.7603   -5.8755 C.ar        1 VBZ      -0.0684
     18 C15        31.6577   50.5513   -3.2241 C.ar        1 VBZ      -0.0553
     19 C14        32.0742   51.3721   -4.2897 C.ar        1 VBZ      -0.0684
     20 C13        31.8052   50.9887   -5.6180 C.ar        1 VBZ      -0.0687
     21 H1         27.6457   50.1522   -0.2326 H           1 VBZ       0.2102
     22 H2         26.7822   47.5430    0.3818 H           1 VBZ       0.0677
     23 H3         25.2772   47.7489   -1.3151 H           1 VBZ       0.0652
     24 H4         24.9458   49.7066   -2.3223 H           1 VBZ       0.2100
     25 H5         26.2783   47.9480   -4.7611 H           1 VBZ       0.2105
     26 H6         26.3466   45.8693   -2.4500 H           1 VBZ       0.0355
     27 H7         27.5186   44.7115   -4.0225 H           1 VBZ       0.0561
     28 H8         27.2997   46.2249   -4.8905 H           1 VBZ       0.0561
     29 H9         29.5649   45.1520   -3.6697 H           1 VBZ       0.2094
     30 H10        29.1926   45.8569   -1.7764 H           1 VBZ       0.0325
     31 H11        27.8181   45.6789   -0.7245 H           1 VBZ       0.0325
     32 H12        27.7614   49.8582   -3.1875 H           1 VBZ       0.0844
     33 H13        28.5149   48.5328   -4.0678 H           1 VBZ       0.0844
     34 H14        29.0326   49.6448   -1.5507 H           1 VBZ       0.2053
     35 H15        29.2501   47.6595   -0.0624 H           1 VBZ       0.0878
     36 H16        30.6511   47.4418   -2.5761 H           1 VBZ       0.0980
     37 H17        31.0993   48.7021   -1.4591 H           1 VBZ       0.0980
     38 H18        30.2684   48.0691   -5.0104 H           1 VBZ       0.0558
     39 H19        30.9935   49.4733   -6.8417 H           1 VBZ       0.0599
     40 H20        31.8540   50.8538   -2.2663 H           1 VBZ       0.0558
     41 H21        32.5557   52.2532   -4.1037 H           1 VBZ       0.0599
     42 H22        32.0771   51.5968   -6.3941 H           1 VBZ       0.0559
@<TRIPOS>BOND
     1     1     2   1
     2     2     3   1
     3     2    13   1
     4     3     4   1
     5     3     5   1
     6     5     6   1
     7     5     7   1
     8     5    11   1
     9     7     8   1
    10     7    10   1
    11     8     9   1
    12    10    13   1
    13    11    12   1
    14    12    13   1
    15    12    14   1
    16    14    15   1
    17    15    16  ar
    18    15    18  ar
    19    16    17  ar
    20    17    20  ar
    21    18    19  ar
    22    19    20  ar
    23     1    21   1
    24     2    22   1
    25     3    23   1
    26     4    24   1
    27     6    25   1
    28     7    26   1
    29     8    27   1
    30     8    28   1
    31     9    29   1
    32    10    30   1
    33    10    31   1
    34    11    32   1
    35    11    33   1
    36    12    34   1
    37    13    35   1
    38    14    36   1
    39    14    37   1
    40    16    38   1
    41    17    39   1
    42    18    40   1
    43    19    41   1
    44    20    42   1
@<TRIPOS>SUBSTRUCTURE
     1  VBZ      2

