@<TRIPOS>MOLECULE
2vo5_ligand_025
    42    44
SMALL
GAST_HUCK
****
This file was generated by PARSER (from files_GN.cpp)

@<TRIPOS>ATOM
      1 O2         25.3580   46.3515   -1.4401 O.3         1 VBZ      -0.3835
      2 C2         26.2376   47.4691   -1.3169 C.3         1 VBZ       0.1262
      3 C3         27.1552   47.3476   -0.0459 C.3         1 VBZ       0.1202
      4 O3         26.8805   46.1664    0.7165 O.3         1 VBZ      -0.3859
      5 C4         28.6730   47.4280   -0.4507 C.3         1 VBZ       0.1387
      6 O4         29.4796   47.3255    0.7229 O.3         1 VBZ      -0.3803
      7 C5         28.9152   48.8146   -1.1646 C.3         1 VBZ       0.0237
      8 C6         30.4113   49.2237   -1.4452 C.3         1 VBZ       0.0501
      9 O6         31.3859   48.2594   -1.0622 O.3         1 VBZ      -0.3946
     10 C7         27.9830   48.9016   -2.4357 C.3         1 VBZ       0.0007
     11 C8         28.9386   46.2836   -1.4900 C.3         1 VBZ       0.0023
     12 N1         27.9750   46.3617   -2.6535 N.4         1 VBZ       0.2533
     13 C1         27.1194   47.6048   -2.6025 C.3         1 VBZ       0.0102
     14 C9         28.5138   45.9623   -3.9960 C.3         1 VBZ       0.0024
     15 C10        29.6261   46.7673   -4.5797 C.ar        1 VBZ       0.0014
     16 C11        30.9734   46.3559   -4.4556 C.ar        1 VBZ      -0.0553
     17 C12        32.0215   47.1153   -5.0159 C.ar        1 VBZ      -0.0684
     18 C15        29.3486   47.9400   -5.3228 C.ar        1 VBZ      -0.0553
     19 C14        30.3937   48.7040   -5.8800 C.ar        1 VBZ      -0.0684
     20 C13        31.7263   48.2940   -5.7274 C.ar        1 VBZ      -0.0687
     21 H1         24.6735   46.6361   -2.0820 H           1 VBZ       0.2102
     22 H2         25.6013   48.3557   -1.2244 H           1 VBZ       0.0677
     23 H3         26.9340   48.1827    0.6236 H           1 VBZ       0.0652
     24 H4         26.7695   45.4424    0.0667 H           1 VBZ       0.2100
     25 H5         29.0953   46.5870    1.2428 H           1 VBZ       0.2105
     26 H6         28.5505   49.5704   -0.4622 H           1 VBZ       0.0355
     27 H7         30.5780   49.4341   -2.5029 H           1 VBZ       0.0561
     28 H8         30.6518   50.1407   -0.9014 H           1 VBZ       0.0561
     29 H9         32.0026   48.1842   -1.8276 H           1 VBZ       0.2094
     30 H10        28.5603   49.0543   -3.3536 H           1 VBZ       0.0325
     31 H11        27.3154   49.7693   -2.3422 H           1 VBZ       0.0325
     32 H12        28.8142   45.3050   -1.0142 H           1 VBZ       0.0844
     33 H13        29.9755   46.3305   -1.8118 H           1 VBZ       0.0844
     34 H14        27.3020   45.6091   -2.4564 H           1 VBZ       0.2053
     35 H15        26.4748   47.6884   -3.4812 H           1 VBZ       0.0878
     36 H16        27.6776   45.9383   -4.7049 H           1 VBZ       0.0980
     37 H17        28.8395   44.9209   -3.9239 H           1 VBZ       0.0980
     38 H18        31.2122   45.5003   -3.9539 H           1 VBZ       0.0558
     39 H19        32.9902   46.8122   -4.9075 H           1 VBZ       0.0599
     40 H20        28.3898   48.2447   -5.4550 H           1 VBZ       0.0558
     41 H21        30.1798   49.5627   -6.3977 H           1 VBZ       0.0599
     42 H22        32.4881   48.8458   -6.1344 H           1 VBZ       0.0559
@<TRIPOS>BOND
     1     1     2   1
     2     2     3   1
     3     2    13   1
     4     3     4   1
     5     3     5   1
     6     5     6   1
     7     5     7   1
     8     5    11   1
     9     7     8   1
    10     7    10   1
    11     8     9   1
    12    10    13   1
    13    11    12   1
    14    12    13   1
    15    12    14   1
    16    14    15   1
    17    15    16  ar
    18    15    18  ar
    19    16    17  ar
    20    17    20  ar
    21    18    19  ar
    22    19    20  ar
    23     1    21   1
    24     2    22   1
    25     3    23   1
    26     4    24   1
    27     6    25   1
    28     7    26   1
    29     8    27   1
    30     8    28   1
    31     9    29   1
    32    10    30   1
    33    10    31   1
    34    11    32   1
    35    11    33   1
    36    12    34   1
    37    13    35   1
    38    14    36   1
    39    14    37   1
    40    16    38   1
    41    17    39   1
    42    18    40   1
    43    19    41   1
    44    20    42   1
@<TRIPOS>SUBSTRUCTURE
     1  VBZ      2

