@<TRIPOS>MOLECULE
2vo5_ligand_019
    42    44
SMALL
GAST_HUCK
****
This file was generated by PARSER (from files_GN.cpp)

@<TRIPOS>ATOM
      1 O2         37.1055   48.4204   -3.6989 O.3         1 VBZ      -0.3835
      2 C2         35.6892   48.2338   -3.6943 C.3         1 VBZ       0.1262
      3 C3         34.9472   49.2732   -2.7796 C.3         1 VBZ       0.1202
      4 O3         35.8466   50.1419   -2.0910 O.3         1 VBZ      -0.3859
      5 C4         33.9185   50.1066   -3.6244 C.3         1 VBZ       0.1387
      6 O4         33.2946   51.0934   -2.7995 O.3         1 VBZ      -0.3803
      7 C5         32.8522   49.1093   -4.2213 C.3         1 VBZ       0.0237
      8 C6         31.6663   49.8107   -4.9663 C.3         1 VBZ       0.0501
      9 O6         30.4138   49.4812   -4.3728 O.3         1 VBZ      -0.3946
     10 C7         33.5926   48.0157   -5.0919 C.3         1 VBZ       0.0007
     11 C8         34.6921   50.7536   -4.8203 C.3         1 VBZ       0.0023
     12 N1         35.3871   49.7053   -5.6704 N.4         1 VBZ       0.2533
     13 C1         35.1320   48.3022   -5.1534 C.3         1 VBZ       0.0102
     14 C9         35.1849   49.9158   -7.1431 C.3         1 VBZ       0.0024
     15 C10        35.8725   48.9064   -7.9971 C.ar        1 VBZ       0.0014
     16 C11        37.2257   49.0757   -8.3773 C.ar        1 VBZ      -0.0553
     17 C12        37.8845   48.1004   -9.1541 C.ar        1 VBZ      -0.0684
     18 C15        35.1926   47.7419   -8.4311 C.ar        1 VBZ      -0.0553
     19 C14        35.8542   46.7567   -9.1865 C.ar        1 VBZ      -0.0684
     20 C13        37.2014   46.9361   -9.5497 C.ar        1 VBZ      -0.0687
     21 H1         37.2462   49.3401   -4.0107 H           1 VBZ       0.2102
     22 H2         35.5156   47.2286   -3.2995 H           1 VBZ       0.0677
     23 H3         34.4047   48.7194   -2.0058 H           1 VBZ       0.0652
     24 H4         36.4349   49.5458   -1.5798 H           1 VBZ       0.2100
     25 H5         34.0243   51.5667   -2.3466 H           1 VBZ       0.2105
     26 H6         32.4096   48.5937   -3.3623 H           1 VBZ       0.0355
     27 H7         31.7625   50.8996   -4.9342 H           1 VBZ       0.0561
     28 H8         31.6371   49.5227   -6.0187 H           1 VBZ       0.0561
     29 H9         30.3074   50.1393   -3.6486 H           1 VBZ       0.2094
     30 H10        33.1994   47.9681   -6.1090 H           1 VBZ       0.0325
     31 H11        33.4328   47.0243   -4.6553 H           1 VBZ       0.0325
     32 H12        35.4559   51.4321   -4.4306 H           1 VBZ       0.0844
     33 H13        33.9989   51.3712   -5.4010 H           1 VBZ       0.0844
     34 H14        36.3857   49.8737   -5.5242 H           1 VBZ       0.2053
     35 H15        35.6381   47.5409   -5.7551 H           1 VBZ       0.0878
     36 H16        35.5732   50.9011   -7.4067 H           1 VBZ       0.0980
     37 H17        34.1148   49.9359   -7.3788 H           1 VBZ       0.0980
     38 H18        37.7410   49.9168   -8.0958 H           1 VBZ       0.0558
     39 H19        38.8608   48.2369   -9.4315 H           1 VBZ       0.0599
     40 H20        34.2127   47.5950   -8.1870 H           1 VBZ       0.0558
     41 H21        35.3562   45.9129   -9.4815 H           1 VBZ       0.0599
     42 H22        37.6801   46.2211  -10.1020 H           1 VBZ       0.0559
@<TRIPOS>BOND
     1     1     2   1
     2     2     3   1
     3     2    13   1
     4     3     4   1
     5     3     5   1
     6     5     6   1
     7     5     7   1
     8     5    11   1
     9     7     8   1
    10     7    10   1
    11     8     9   1
    12    10    13   1
    13    11    12   1
    14    12    13   1
    15    12    14   1
    16    14    15   1
    17    15    16  ar
    18    15    18  ar
    19    16    17  ar
    20    17    20  ar
    21    18    19  ar
    22    19    20  ar
    23     1    21   1
    24     2    22   1
    25     3    23   1
    26     4    24   1
    27     6    25   1
    28     7    26   1
    29     8    27   1
    30     8    28   1
    31     9    29   1
    32    10    30   1
    33    10    31   1
    34    11    32   1
    35    11    33   1
    36    12    34   1
    37    13    35   1
    38    14    36   1
    39    14    37   1
    40    16    38   1
    41    17    39   1
    42    18    40   1
    43    19    41   1
    44    20    42   1
@<TRIPOS>SUBSTRUCTURE
     1  VBZ      2

