@<TRIPOS>MOLECULE
2vo5_ligand_035
    42    44
SMALL
GAST_HUCK
****
This file was generated by PARSER (from files_GN.cpp)

@<TRIPOS>ATOM
      1 O2         28.6767   42.5921   -5.4787 O.3         1 VBZ      -0.3835
      2 C2         29.8931   43.3093   -5.7097 C.3         1 VBZ       0.1262
      3 C3         30.3300   43.2361   -7.2221 C.3         1 VBZ       0.1202
      4 O3         29.4088   42.4867   -8.0196 O.3         1 VBZ      -0.3859
      5 C4         30.5238   44.6799   -7.8183 C.3         1 VBZ       0.1387
      6 O4         30.8731   44.6101   -9.1975 O.3         1 VBZ      -0.3803
      7 C5         31.6322   45.3962   -6.9589 C.3         1 VBZ       0.0237
      8 C6         32.2712   46.7019   -7.5378 C.3         1 VBZ       0.0501
      9 O6         31.4113   47.5022   -8.3514 O.3         1 VBZ      -0.3946
     10 C7         31.1261   45.5199   -5.4719 C.3         1 VBZ       0.0007
     11 C8         29.1574   45.4311   -7.6315 C.3         1 VBZ       0.0023
     12 N1         28.7009   45.3932   -6.1954 N.4         1 VBZ       0.2533
     13 C1         29.7400   44.8072   -5.2784 C.3         1 VBZ       0.0102
     14 C9         27.9495   46.5827   -5.6700 C.3         1 VBZ       0.0024
     15 C10        28.7765   47.7118   -5.1526 C.ar        1 VBZ       0.0014
     16 C11        28.8800   47.9557   -3.7615 C.ar        1 VBZ      -0.0553
     17 C12        29.7341   48.9587   -3.2654 C.ar        1 VBZ      -0.0684
     18 C15        29.5220   48.5341   -6.0320 C.ar        1 VBZ      -0.0553
     19 C14        30.3834   49.5327   -5.5397 C.ar        1 VBZ      -0.0684
     20 C13        30.4906   49.7456   -4.1556 C.ar        1 VBZ      -0.0687
     21 H1         28.6090   42.4796   -4.5100 H           1 VBZ       0.2102
     22 H2         30.6618   42.8414   -5.0905 H           1 VBZ       0.0677
     23 H3         31.2831   42.7003   -7.2916 H           1 VBZ       0.0652
     24 H4         29.6614   41.5513   -7.8821 H           1 VBZ       0.2100
     25 H5         31.8537   44.6701   -9.2313 H           1 VBZ       0.2105
     26 H6         32.4726   44.7055   -6.9189 H           1 VBZ       0.0355
     27 H7         33.1391   46.4419   -8.1607 H           1 VBZ       0.0561
     28 H8         32.6396   47.3418   -6.7308 H           1 VBZ       0.0561
     29 H9         31.2697   46.9470   -9.1663 H           1 VBZ       0.2094
     30 H10        31.0562   46.5655   -5.1653 H           1 VBZ       0.0325
     31 H11        31.8404   45.0543   -4.7860 H           1 VBZ       0.0325
     32 H12        29.2236   46.4490   -8.0077 H           1 VBZ       0.0844
     33 H13        28.3951   44.9359   -8.2425 H           1 VBZ       0.0844
     34 H14        27.9797   44.6718   -6.2153 H           1 VBZ       0.2053
     35 H15        29.4250   44.8673   -4.2327 H           1 VBZ       0.0878
     36 H16        27.2713   46.9489   -6.4440 H           1 VBZ       0.0980
     37 H17        27.2985   46.2169   -4.8707 H           1 VBZ       0.0980
     38 H18        28.3710   47.3725   -3.0912 H           1 VBZ       0.0558
     39 H19        29.8112   49.1154   -2.2566 H           1 VBZ       0.0599
     40 H20        29.4520   48.4059   -7.0440 H           1 VBZ       0.0558
     41 H21        30.9191   50.1090   -6.1883 H           1 VBZ       0.0599
     42 H22        31.1152   50.4683   -3.7969 H           1 VBZ       0.0559
@<TRIPOS>BOND
     1     1     2   1
     2     2     3   1
     3     2    13   1
     4     3     4   1
     5     3     5   1
     6     5     6   1
     7     5     7   1
     8     5    11   1
     9     7     8   1
    10     7    10   1
    11     8     9   1
    12    10    13   1
    13    11    12   1
    14    12    13   1
    15    12    14   1
    16    14    15   1
    17    15    16  ar
    18    15    18  ar
    19    16    17  ar
    20    17    20  ar
    21    18    19  ar
    22    19    20  ar
    23     1    21   1
    24     2    22   1
    25     3    23   1
    26     4    24   1
    27     6    25   1
    28     7    26   1
    29     8    27   1
    30     8    28   1
    31     9    29   1
    32    10    30   1
    33    10    31   1
    34    11    32   1
    35    11    33   1
    36    12    34   1
    37    13    35   1
    38    14    36   1
    39    14    37   1
    40    16    38   1
    41    17    39   1
    42    18    40   1
    43    19    41   1
    44    20    42   1
@<TRIPOS>SUBSTRUCTURE
     1  VBZ      2

