@<TRIPOS>MOLECULE
2vo5_ligand_014
    42    44
SMALL
GAST_HUCK
****
This file was generated by PARSER (from files_GN.cpp)

@<TRIPOS>ATOM
      1 O2         29.8950   43.0233   -5.1460 O.3         1 VBZ      -0.3835
      2 C2         30.4232   44.0357   -6.0025 C.3         1 VBZ       0.1262
      3 C3         29.4398   44.4376   -7.1637 C.3         1 VBZ       0.1202
      4 O3         28.2258   43.6886   -7.1110 O.3         1 VBZ      -0.3859
      5 C4         29.1524   45.9826   -7.1221 C.3         1 VBZ       0.1387
      6 O4         28.2397   46.3678   -8.1535 O.3         1 VBZ      -0.3803
      7 C5         30.5317   46.7445   -7.2463 C.3         1 VBZ       0.0237
      8 C6         30.3983   48.2860   -7.4577 C.3         1 VBZ       0.0501
      9 O6         31.5882   48.9866   -7.1164 O.3         1 VBZ      -0.3946
     10 C7         31.4601   46.3416   -6.0392 C.3         1 VBZ       0.0007
     11 C8         28.5455   46.2938   -5.7107 C.3         1 VBZ       0.0023
     12 N1         29.4491   45.8292   -4.5879 N.4         1 VBZ       0.2533
     13 C1         30.7546   45.2862   -5.1223 C.3         1 VBZ       0.0102
     14 C9         29.6059   46.7519   -3.4140 C.3         1 VBZ       0.0024
     15 C10        28.3532   47.4042   -2.9340 C.ar        1 VBZ       0.0014
     16 C11        28.2529   48.8151   -2.8692 C.ar        1 VBZ      -0.0553
     17 C12        27.0610   49.4420   -2.4720 C.ar        1 VBZ      -0.0684
     18 C15        27.2198   46.6316   -2.5813 C.ar        1 VBZ      -0.0553
     19 C14        26.0220   47.2568   -2.1823 C.ar        1 VBZ      -0.0684
     20 C13        25.9392   48.6584   -2.1349 C.ar        1 VBZ      -0.0687
     21 H1         30.2595   42.1704   -5.4614 H           1 VBZ       0.2102
     22 H2         31.3499   43.6427   -6.4301 H           1 VBZ       0.0677
     23 H3         29.8963   44.1912   -8.1261 H           1 VBZ       0.0652
     24 H4         28.4812   42.7624   -7.3130 H           1 VBZ       0.2100
     25 H5         28.7643   46.3889   -8.9819 H           1 VBZ       0.2105
     26 H6         31.0158   46.3794   -8.1569 H           1 VBZ       0.0355
     27 H7         29.5907   48.7046   -6.8533 H           1 VBZ       0.0561
     28 H8         30.1743   48.4884   -8.5039 H           1 VBZ       0.0561
     29 H9         32.2694   48.6803   -7.7530 H           1 VBZ       0.2094
     30 H10        31.7406   47.2100   -5.4415 H           1 VBZ       0.0325
     31 H11        32.3919   45.9135   -6.4197 H           1 VBZ       0.0325
     32 H12        27.5954   45.7691   -5.6057 H           1 VBZ       0.0844
     33 H13        28.3139   47.3570   -5.6443 H           1 VBZ       0.0844
     34 H14        28.9830   45.0115   -4.1855 H           1 VBZ       0.2053
     35 H15        31.4191   44.9888   -4.3069 H           1 VBZ       0.0878
     36 H16        30.0005   46.1699   -2.5807 H           1 VBZ       0.0980
     37 H17        30.3534   47.5131   -3.6377 H           1 VBZ       0.0980
     38 H18        29.0503   49.4023   -3.1250 H           1 VBZ       0.0558
     39 H19        26.9997   50.4624   -2.4422 H           1 VBZ       0.0599
     40 H20        27.2569   45.6116   -2.6289 H           1 VBZ       0.0558
     41 H21        25.2053   46.6901   -1.9392 H           1 VBZ       0.0599
     42 H22        25.0631   49.1159   -1.8762 H           1 VBZ       0.0559
@<TRIPOS>BOND
     1     1     2   1
     2     2     3   1
     3     2    13   1
     4     3     4   1
     5     3     5   1
     6     5     6   1
     7     5     7   1
     8     5    11   1
     9     7     8   1
    10     7    10   1
    11     8     9   1
    12    10    13   1
    13    11    12   1
    14    12    13   1
    15    12    14   1
    16    14    15   1
    17    15    16  ar
    18    15    18  ar
    19    16    17  ar
    20    17    20  ar
    21    18    19  ar
    22    19    20  ar
    23     1    21   1
    24     2    22   1
    25     3    23   1
    26     4    24   1
    27     6    25   1
    28     7    26   1
    29     8    27   1
    30     8    28   1
    31     9    29   1
    32    10    30   1
    33    10    31   1
    34    11    32   1
    35    11    33   1
    36    12    34   1
    37    13    35   1
    38    14    36   1
    39    14    37   1
    40    16    38   1
    41    17    39   1
    42    18    40   1
    43    19    41   1
    44    20    42   1
@<TRIPOS>SUBSTRUCTURE
     1  VBZ      2

