@<TRIPOS>MOLECULE
2vo5_ligand_031
    42    44
SMALL
GAST_HUCK
****
This file was generated by PARSER (from files_GN.cpp)

@<TRIPOS>ATOM
      1 O2         28.3036   46.7185   -6.4356 O.3         1 VBZ      -0.3835
      2 C2         29.0389   47.6116   -5.5991 C.3         1 VBZ       0.1262
      3 C3         29.6961   46.9000   -4.3609 C.3         1 VBZ       0.1202
      4 O3         29.4748   45.4900   -4.3900 O.3         1 VBZ      -0.3859
      5 C4         31.2330   47.2189   -4.3056 C.3         1 VBZ       0.1387
      6 O4         31.8534   46.5584   -3.1967 O.3         1 VBZ      -0.3803
      7 C5         31.3859   48.7871   -4.2298 C.3         1 VBZ       0.0237
      8 C6         32.8130   49.3269   -3.9323 C.3         1 VBZ       0.0501
      9 O6         33.3096   48.8989   -2.6696 O.3         1 VBZ      -0.3946
     10 C7         30.7896   49.4431   -5.5340 C.3         1 VBZ       0.0007
     11 C8         31.8600   46.7248   -5.6520 C.3         1 VBZ       0.0023
     12 N1         31.1705   47.3426   -6.8518 N.4         1 VBZ       0.2533
     13 C1         30.1255   48.3551   -6.4417 C.3         1 VBZ       0.0102
     14 C9         32.0744   47.7827   -7.9718 C.3         1 VBZ       0.0024
     15 C10        31.8577   46.9382   -9.1748 C.ar        1 VBZ       0.0014
     16 C11        32.5519   45.7165   -9.3311 C.ar        1 VBZ      -0.0553
     17 C12        32.3466   44.9210  -10.4755 C.ar        1 VBZ      -0.0684
     18 C15        30.9442   47.3389  -10.1765 C.ar        1 VBZ      -0.0553
     19 C14        30.7431   46.5450  -11.3182 C.ar        1 VBZ      -0.0684
     20 C13        31.4466   45.3334  -11.4687 C.ar        1 VBZ      -0.0687
     21 H1         27.5757   46.3858   -5.8677 H           1 VBZ       0.2102
     22 H2         28.3216   48.3498   -5.2309 H           1 VBZ       0.0677
     23 H3         29.2192   47.2637   -3.4448 H           1 VBZ       0.0652
     24 H4         29.8775   45.1552   -3.5630 H           1 VBZ       0.2100
     25 H5         31.3644   46.8655   -2.4047 H           1 VBZ       0.2105
     26 H6         30.7742   49.1287   -3.3866 H           1 VBZ       0.0355
     27 H7         32.7810   50.4169   -3.9070 H           1 VBZ       0.0561
     28 H8         33.5134   49.0365   -4.7185 H           1 VBZ       0.0561
     29 H9         33.5397   47.9545   -2.7925 H           1 VBZ       0.2094
     30 H10        31.5679   49.9429   -6.1159 H           1 VBZ       0.0325
     31 H11        30.0550   50.2065   -5.2690 H           1 VBZ       0.0325
     32 H12        31.7596   45.6417   -5.7360 H           1 VBZ       0.0844
     33 H13        32.9309   46.9258   -5.6277 H           1 VBZ       0.0844
     34 H14        30.6212   46.5767   -7.2456 H           1 VBZ       0.2053
     35 H15        29.6586   48.8198   -7.3136 H           1 VBZ       0.0878
     36 H16        31.9114   48.8290   -8.2401 H           1 VBZ       0.0980
     37 H17        33.1320   47.7410   -7.7022 H           1 VBZ       0.0980
     38 H18        33.2116   45.4025   -8.6197 H           1 VBZ       0.0558
     39 H19        32.8608   44.0448  -10.5830 H           1 VBZ       0.0599
     40 H20        30.4173   48.2117  -10.0810 H           1 VBZ       0.0558
     41 H21        30.0915   46.8498  -12.0420 H           1 VBZ       0.0599
     42 H22        31.3014   44.7601  -12.3014 H           1 VBZ       0.0559
@<TRIPOS>BOND
     1     1     2   1
     2     2     3   1
     3     2    13   1
     4     3     4   1
     5     3     5   1
     6     5     6   1
     7     5     7   1
     8     5    11   1
     9     7     8   1
    10     7    10   1
    11     8     9   1
    12    10    13   1
    13    11    12   1
    14    12    13   1
    15    12    14   1
    16    14    15   1
    17    15    16  ar
    18    15    18  ar
    19    16    17  ar
    20    17    20  ar
    21    18    19  ar
    22    19    20  ar
    23     1    21   1
    24     2    22   1
    25     3    23   1
    26     4    24   1
    27     6    25   1
    28     7    26   1
    29     8    27   1
    30     8    28   1
    31     9    29   1
    32    10    30   1
    33    10    31   1
    34    11    32   1
    35    11    33   1
    36    12    34   1
    37    13    35   1
    38    14    36   1
    39    14    37   1
    40    16    38   1
    41    17    39   1
    42    18    40   1
    43    19    41   1
    44    20    42   1
@<TRIPOS>SUBSTRUCTURE
     1  VBZ      2

