@<TRIPOS>MOLECULE
2vo5_ligand_020
    42    44
SMALL
GAST_HUCK
****
This file was generated by PARSER (from files_GN.cpp)

@<TRIPOS>ATOM
      1 O2         36.8576   48.3584   -5.1222 O.3         1 VBZ      -0.3835
      2 C2         35.4559   48.2985   -5.3954 C.3         1 VBZ       0.1262
      3 C3         34.6103   48.0689   -4.0891 C.3         1 VBZ       0.1202
      4 O3         35.4434   47.9684   -2.9316 O.3         1 VBZ      -0.3859
      5 C4         33.5487   49.2106   -3.9169 C.3         1 VBZ       0.1387
      6 O4         32.8317   49.0380   -2.6922 O.3         1 VBZ      -0.3803
      7 C5         32.6075   49.1861   -5.1867 C.3         1 VBZ       0.0237
      8 C6         31.3785   50.1421   -5.1174 C.3         1 VBZ       0.0501
      9 O6         30.3003   49.5499   -4.4047 O.3         1 VBZ      -0.3946
     10 C7         33.4721   49.4280   -6.4833 C.3         1 VBZ       0.0007
     11 C8         34.3351   50.5641   -3.8969 C.3         1 VBZ       0.0023
     12 N1         35.1690   50.7492   -5.1489 N.4         1 VBZ       0.2533
     13 C1         34.9832   49.6030   -6.1212 C.3         1 VBZ       0.0102
     14 C9         35.0719   52.1318   -5.7259 C.3         1 VBZ       0.0024
     15 C10        36.2557   52.5199   -6.5390 C.ar        1 VBZ       0.0014
     16 C11        37.2758   53.3348   -5.9870 C.ar        1 VBZ      -0.0553
     17 C12        38.4018   53.7021   -6.7481 C.ar        1 VBZ      -0.0684
     18 C15        36.3939   52.0818   -7.8808 C.ar        1 VBZ      -0.0553
     19 C14        37.5246   52.4382   -8.6421 C.ar        1 VBZ      -0.0684
     20 C13        38.5318   53.2451   -8.0768 C.ar        1 VBZ      -0.0687
     21 H1         37.2872   48.5657   -5.9813 H           1 VBZ       0.2102
     22 H2         35.3124   47.4466   -6.0670 H           1 VBZ       0.0677
     23 H3         34.0905   47.1128   -4.1729 H           1 VBZ       0.0652
     24 H4         34.8766   47.5665   -2.2346 H           1 VBZ       0.2100
     25 H5         32.2691   48.2450   -2.8304 H           1 VBZ       0.2105
     26 H6         32.1817   48.1738   -5.2560 H           1 VBZ       0.0355
     27 H7         31.6463   51.0861   -4.6415 H           1 VBZ       0.0561
     28 H8         31.0216   50.3663   -6.1262 H           1 VBZ       0.0561
     29 H9         29.9552   50.2584   -3.8247 H           1 VBZ       0.2094
     30 H10        33.1336   50.3045   -7.0385 H           1 VBZ       0.0325
     31 H11        33.3628   48.5767   -7.1594 H           1 VBZ       0.0325
     32 H12        35.0140   50.5822   -3.0375 H           1 VBZ       0.0844
     33 H13        33.6262   51.3800   -3.7384 H           1 VBZ       0.0844
     34 H14        36.1412   50.6691   -4.8367 H           1 VBZ       0.2053
     35 H15        35.5794   49.7334   -7.0276 H           1 VBZ       0.0878
     36 H16        34.9819   52.8571   -4.9126 H           1 VBZ       0.0980
     37 H17        34.1598   52.2357   -6.3183 H           1 VBZ       0.0980
     38 H18        37.1979   53.6798   -5.0272 H           1 VBZ       0.0558
     39 H19        39.1301   54.2936   -6.3394 H           1 VBZ       0.0599
     40 H20        35.6781   51.4885   -8.3085 H           1 VBZ       0.0558
     41 H21        37.6179   52.1071   -9.6080 H           1 VBZ       0.0599
     42 H22        39.3490   53.5081   -8.6305 H           1 VBZ       0.0559
@<TRIPOS>BOND
     1     1     2   1
     2     2     3   1
     3     2    13   1
     4     3     4   1
     5     3     5   1
     6     5     6   1
     7     5     7   1
     8     5    11   1
     9     7     8   1
    10     7    10   1
    11     8     9   1
    12    10    13   1
    13    11    12   1
    14    12    13   1
    15    12    14   1
    16    14    15   1
    17    15    16  ar
    18    15    18  ar
    19    16    17  ar
    20    17    20  ar
    21    18    19  ar
    22    19    20  ar
    23     1    21   1
    24     2    22   1
    25     3    23   1
    26     4    24   1
    27     6    25   1
    28     7    26   1
    29     8    27   1
    30     8    28   1
    31     9    29   1
    32    10    30   1
    33    10    31   1
    34    11    32   1
    35    11    33   1
    36    12    34   1
    37    13    35   1
    38    14    36   1
    39    14    37   1
    40    16    38   1
    41    17    39   1
    42    18    40   1
    43    19    41   1
    44    20    42   1
@<TRIPOS>SUBSTRUCTURE
     1  VBZ      2

