@<TRIPOS>MOLECULE
2vo5_ligand_047
    42    44
SMALL
GAST_HUCK
****
This file was generated by PARSER (from files_GN.cpp)

@<TRIPOS>ATOM
      1 O2         32.3034   46.1618   -3.4715 O.3         1 VBZ      -0.3835
      2 C2         31.8025   46.3838   -4.7947 C.3         1 VBZ       0.1262
      3 C3         31.3596   45.0557   -5.5150 C.3         1 VBZ       0.1202
      4 O3         31.3721   43.9451   -4.6153 O.3         1 VBZ      -0.3859
      5 C4         29.9275   45.2341   -6.1454 C.3         1 VBZ       0.1387
      6 O4         29.5117   44.0620   -6.8490 O.3         1 VBZ      -0.3803
      7 C5         29.9959   46.4791   -7.0987 C.3         1 VBZ       0.0237
      8 C6         28.8205   46.6463   -8.0984 C.3         1 VBZ       0.0501
      9 O6         28.8742   45.6547   -9.1310 O.3         1 VBZ      -0.3946
     10 C7         30.2400   47.7771   -6.2418 C.3         1 VBZ       0.0007
     11 C8         28.9387   45.5507   -4.9658 C.3         1 VBZ       0.0023
     12 N1         29.4575   46.6816   -4.1068 N.4         1 VBZ       0.2533
     13 C1         30.6167   47.4033   -4.7667 C.3         1 VBZ       0.0102
     14 C9         28.4017   47.5776   -3.5173 C.3         1 VBZ       0.0024
     15 C10        27.9815   47.1011   -2.1715 C.ar        1 VBZ       0.0014
     16 C11        28.8527   47.2535   -1.0705 C.ar        1 VBZ      -0.0553
     17 C12        28.4687   46.8077    0.2126 C.ar        1 VBZ      -0.0684
     18 C15        26.7209   46.4956   -1.9728 C.ar        1 VBZ      -0.0553
     19 C14        26.3389   46.0430   -0.7010 C.ar        1 VBZ      -0.0684
     20 C13        27.2180   46.1963    0.3913 C.ar        1 VBZ      -0.0687
     21 H1         31.6999   45.5192   -3.0312 H           1 VBZ       0.2102
     22 H2         32.6315   46.8404   -5.3504 H           1 VBZ       0.0677
     23 H3         32.0800   44.8275   -6.3020 H           1 VBZ       0.0652
     24 H4         31.1605   43.1455   -5.1457 H           1 VBZ       0.2100
     25 H5         29.2232   43.4122   -6.1731 H           1 VBZ       0.2105
     26 H6         30.8786   46.3520   -7.7323 H           1 VBZ       0.0355
     27 H7         27.8698   46.6135   -7.5659 H           1 VBZ       0.0561
     28 H8         28.9276   47.6207   -8.5943 H           1 VBZ       0.0561
     29 H9         28.0912   45.8560   -9.7132 H           1 VBZ       0.2094
     30 H10        29.3378   48.3962   -6.2232 H           1 VBZ       0.0325
     31 H11        31.0393   48.3775   -6.6804 H           1 VBZ       0.0325
     32 H12        28.8285   44.6613   -4.3402 H           1 VBZ       0.0844
     33 H13        27.9484   45.7642   -5.3825 H           1 VBZ       0.0844
     34 H14        29.8738   46.2150   -3.2983 H           1 VBZ       0.2053
     35 H15        30.9182   48.2966   -4.2066 H           1 VBZ       0.0878
     36 H16        27.5495   47.6481   -4.2054 H           1 VBZ       0.0980
     37 H17        28.7744   48.5984   -3.3951 H           1 VBZ       0.0980
     38 H18        29.7567   47.7099   -1.1769 H           1 VBZ       0.0558
     39 H19        29.0914   46.9342    1.0124 H           1 VBZ       0.0599
     40 H20        26.0793   46.3814   -2.7535 H           1 VBZ       0.0558
     41 H21        25.4242   45.6062   -0.5623 H           1 VBZ       0.0599
     42 H22        26.9392   45.8591    1.3227 H           1 VBZ       0.0559
@<TRIPOS>BOND
     1     1     2   1
     2     2     3   1
     3     2    13   1
     4     3     4   1
     5     3     5   1
     6     5     6   1
     7     5     7   1
     8     5    11   1
     9     7     8   1
    10     7    10   1
    11     8     9   1
    12    10    13   1
    13    11    12   1
    14    12    13   1
    15    12    14   1
    16    14    15   1
    17    15    16  ar
    18    15    18  ar
    19    16    17  ar
    20    17    20  ar
    21    18    19  ar
    22    19    20  ar
    23     1    21   1
    24     2    22   1
    25     3    23   1
    26     4    24   1
    27     6    25   1
    28     7    26   1
    29     8    27   1
    30     8    28   1
    31     9    29   1
    32    10    30   1
    33    10    31   1
    34    11    32   1
    35    11    33   1
    36    12    34   1
    37    13    35   1
    38    14    36   1
    39    14    37   1
    40    16    38   1
    41    17    39   1
    42    18    40   1
    43    19    41   1
    44    20    42   1
@<TRIPOS>SUBSTRUCTURE
     1  VBZ      2

