@<TRIPOS>MOLECULE
2vo5_ligand_038
    42    44
SMALL
GAST_HUCK
****
This file was generated by PARSER (from files_GN.cpp)

@<TRIPOS>ATOM
      1 O2         37.9596   49.2043   -5.3373 O.3         1 VBZ      -0.3835
      2 C2         36.8996   48.3240   -4.9681 C.3         1 VBZ       0.1262
      3 C3         36.7901   48.1251   -3.4085 C.3         1 VBZ       0.1202
      4 O3         37.7747   48.8772   -2.6859 O.3         1 VBZ      -0.3859
      5 C4         35.3433   48.4841   -2.9039 C.3         1 VBZ       0.1387
      6 O4         35.2803   48.3088   -1.4917 O.3         1 VBZ      -0.3803
      7 C5         34.3144   47.5587   -3.6541 C.3         1 VBZ       0.0237
      8 C6         32.8286   47.5403   -3.1455 C.3         1 VBZ       0.0501
      9 O6         32.5341   48.4856   -2.1218 O.3         1 VBZ      -0.3946
     10 C7         34.4582   47.7817   -5.2104 C.3         1 VBZ       0.0007
     11 C8         35.0672   49.9645   -3.3257 C.3         1 VBZ       0.0023
     12 N1         35.2577   50.1612   -4.8125 N.4         1 VBZ       0.2533
     13 C1         35.5424   48.8642   -5.5318 C.3         1 VBZ       0.0102
     14 C9         34.3176   51.1319   -5.4777 C.3         1 VBZ       0.0024
     15 C10        32.9467   50.6440   -5.8129 C.ar        1 VBZ       0.0014
     16 C11        31.9395   50.5528   -4.8202 C.ar        1 VBZ      -0.0553
     17 C12        30.6964   49.9580   -5.1069 C.ar        1 VBZ      -0.0684
     18 C15        32.6285   50.2317   -7.1284 C.ar        1 VBZ      -0.0553
     19 C14        31.3827   49.6464   -7.4194 C.ar        1 VBZ      -0.0684
     20 C13        30.4302   49.4776   -6.4008 C.ar        1 VBZ      -0.0687
     21 H1         38.7820   48.7882   -4.9983 H           1 VBZ       0.2102
     22 H2         37.1319   47.3639   -5.4383 H           1 VBZ       0.0677
     23 H3         36.9880   47.0726   -3.1708 H           1 VBZ       0.0652
     24 H4         38.6209   48.3852   -2.7803 H           1 VBZ       0.2100
     25 H5         35.5824   47.3880   -1.3401 H           1 VBZ       0.2105
     26 H6         34.6703   46.5463   -3.4587 H           1 VBZ       0.0355
     27 H7         32.1190   47.7159   -3.9585 H           1 VBZ       0.0561
     28 H8         32.5870   46.5545   -2.7365 H           1 VBZ       0.0561
     29 H9         31.5685   48.3796   -1.9408 H           1 VBZ       0.2094
     30 H10        33.5137   48.0793   -5.6686 H           1 VBZ       0.0325
     31 H11        34.7351   46.8352   -5.6939 H           1 VBZ       0.0325
     32 H12        35.7640   50.6284   -2.8033 H           1 VBZ       0.0844
     33 H13        34.0726   50.2592   -2.9953 H           1 VBZ       0.0844
     34 H14        36.1561   50.6515   -4.8672 H           1 VBZ       0.2053
     35 H15        35.6284   49.0115   -6.6099 H           1 VBZ       0.0878
     36 H16        34.8126   51.4700   -6.3934 H           1 VBZ       0.0980
     37 H17        34.2292   52.0266   -4.8568 H           1 VBZ       0.0980
     38 H18        32.1041   50.9046   -3.8759 H           1 VBZ       0.0558
     39 H19        29.9968   49.8648   -4.3723 H           1 VBZ       0.0599
     40 H20        33.3185   50.3214   -7.8825 H           1 VBZ       0.0558
     41 H21        31.1757   49.3268   -8.3700 H           1 VBZ       0.0599
     42 H22        29.5439   49.0131   -6.6008 H           1 VBZ       0.0559
@<TRIPOS>BOND
     1     1     2   1
     2     2     3   1
     3     2    13   1
     4     3     4   1
     5     3     5   1
     6     5     6   1
     7     5     7   1
     8     5    11   1
     9     7     8   1
    10     7    10   1
    11     8     9   1
    12    10    13   1
    13    11    12   1
    14    12    13   1
    15    12    14   1
    16    14    15   1
    17    15    16  ar
    18    15    18  ar
    19    16    17  ar
    20    17    20  ar
    21    18    19  ar
    22    19    20  ar
    23     1    21   1
    24     2    22   1
    25     3    23   1
    26     4    24   1
    27     6    25   1
    28     7    26   1
    29     8    27   1
    30     8    28   1
    31     9    29   1
    32    10    30   1
    33    10    31   1
    34    11    32   1
    35    11    33   1
    36    12    34   1
    37    13    35   1
    38    14    36   1
    39    14    37   1
    40    16    38   1
    41    17    39   1
    42    18    40   1
    43    19    41   1
    44    20    42   1
@<TRIPOS>SUBSTRUCTURE
     1  VBZ      2

