@<TRIPOS>MOLECULE
2vo5_ligand_056
    42    44
SMALL
GAST_HUCK
****
This file was generated by PARSER (from files_GN.cpp)

@<TRIPOS>ATOM
      1 O2         30.7904   43.8217   -3.0000 O.3         1 VBZ      -0.3835
      2 C2         30.9807   43.9701   -4.4163 C.3         1 VBZ       0.1262
      3 C3         29.7880   43.3807   -5.2481 C.3         1 VBZ       0.1202
      4 O3         28.7606   42.8703   -4.4024 O.3         1 VBZ      -0.3859
      5 C4         29.1768   44.4800   -6.1833 C.3         1 VBZ       0.1387
      6 O4         28.1161   43.9093   -6.9509 O.3         1 VBZ      -0.3803
      7 C5         30.3138   45.0059   -7.1368 C.3         1 VBZ       0.0237
      8 C6         29.8141   45.9713   -8.2572 C.3         1 VBZ       0.0501
      9 O6         30.7741   46.0978   -9.3056 O.3         1 VBZ      -0.3946
     10 C7         31.4682   45.6393   -6.2754 C.3         1 VBZ       0.0007
     11 C8         28.7222   45.6656   -5.2551 C.3         1 VBZ       0.0023
     12 N1         29.8723   46.1694   -4.3983 N.4         1 VBZ       0.2533
     13 C1         31.1764   45.4870   -4.7484 C.3         1 VBZ       0.0102
     14 C9         29.9607   47.6589   -4.2749 C.3         1 VBZ       0.0024
     15 C10        29.0137   48.1899   -3.2602 C.ar        1 VBZ       0.0014
     16 C11        29.3706   48.2400   -1.8911 C.ar        1 VBZ      -0.0553
     17 C12        28.5023   48.7969   -0.9368 C.ar        1 VBZ      -0.0684
     18 C15        27.7427   48.6902   -3.6392 C.ar        1 VBZ      -0.0553
     19 C14        26.8850   49.2747   -2.6909 C.ar        1 VBZ      -0.0684
     20 C13        27.2589   49.3280   -1.3385 C.ar        1 VBZ      -0.0687
     21 H1         30.7012   42.8565   -2.8451 H           1 VBZ       0.2102
     22 H2         31.8920   43.4201   -4.6594 H           1 VBZ       0.0677
     23 H3         30.1570   42.5450   -5.8489 H           1 VBZ       0.0652
     24 H4         28.3317   42.1402   -4.9059 H           1 VBZ       0.2100
     25 H5         27.5408   43.4501   -6.3063 H           1 VBZ       0.2105
     26 H6         30.7173   44.1289   -7.6557 H           1 VBZ       0.0355
     27 H7         28.8967   45.5864   -8.7101 H           1 VBZ       0.0561
     28 H8         29.5989   46.9607   -7.8540 H           1 VBZ       0.0561
     29 H9         31.5561   46.5315   -8.9006 H           1 VBZ       0.2094
     30 H10        31.5943   46.7018   -6.4937 H           1 VBZ       0.0325
     31 H11        32.4129   45.1522   -6.5224 H           1 VBZ       0.0325
     32 H12        27.9276   45.3329   -4.5798 H           1 VBZ       0.0844
     33 H13        28.2862   46.4530   -5.8746 H           1 VBZ       0.0844
     34 H14        29.6911   45.8240   -3.4530 H           1 VBZ       0.2053
     35 H15        32.0022   45.8848   -4.1529 H           1 VBZ       0.0878
     36 H16        29.7868   48.1376   -5.2434 H           1 VBZ       0.0980
     37 H17        30.9716   47.9716   -3.9786 H           1 VBZ       0.0980
     38 H18        30.2787   47.8790   -1.5818 H           1 VBZ       0.0558
     39 H19        28.7695   48.8292    0.0480 H           1 VBZ       0.0599
     40 H20        27.4442   48.6397   -4.6148 H           1 VBZ       0.0558
     41 H21        25.9867   49.6692   -2.9869 H           1 VBZ       0.0599
     42 H22        26.6355   49.7456   -0.6460 H           1 VBZ       0.0559
@<TRIPOS>BOND
     1     1     2   1
     2     2     3   1
     3     2    13   1
     4     3     4   1
     5     3     5   1
     6     5     6   1
     7     5     7   1
     8     5    11   1
     9     7     8   1
    10     7    10   1
    11     8     9   1
    12    10    13   1
    13    11    12   1
    14    12    13   1
    15    12    14   1
    16    14    15   1
    17    15    16  ar
    18    15    18  ar
    19    16    17  ar
    20    17    20  ar
    21    18    19  ar
    22    19    20  ar
    23     1    21   1
    24     2    22   1
    25     3    23   1
    26     4    24   1
    27     6    25   1
    28     7    26   1
    29     8    27   1
    30     8    28   1
    31     9    29   1
    32    10    30   1
    33    10    31   1
    34    11    32   1
    35    11    33   1
    36    12    34   1
    37    13    35   1
    38    14    36   1
    39    14    37   1
    40    16    38   1
    41    17    39   1
    42    18    40   1
    43    19    41   1
    44    20    42   1
@<TRIPOS>SUBSTRUCTURE
     1  VBZ      2

