@<TRIPOS>MOLECULE
2vo5_ligand_050
    42    44
SMALL
GAST_HUCK
****
This file was generated by PARSER (from files_GN.cpp)

@<TRIPOS>ATOM
      1 O2         25.8070   48.8312   -0.5165 O.3         1 VBZ      -0.3835
      2 C2         27.1944   48.5142   -0.4999 C.3         1 VBZ       0.1262
      3 C3         27.4765   47.0359   -0.0282 C.3         1 VBZ       0.1202
      4 O3         26.2706   46.3417    0.2958 O.3         1 VBZ      -0.3859
      5 C4         28.2940   46.2634   -1.1292 C.3         1 VBZ       0.1387
      6 O4         28.5250   44.9028   -0.7351 O.3         1 VBZ      -0.3803
      7 C5         29.6401   47.0618   -1.3571 C.3         1 VBZ       0.0237
      8 C6         30.6519   46.3664   -2.3112 C.3         1 VBZ       0.0501
      9 O6         31.7757   47.2042   -2.5551 O.3         1 VBZ      -0.3946
     10 C7         29.3298   48.5364   -1.8066 C.3         1 VBZ       0.0007
     11 C8         27.4533   46.3188   -2.4494 C.3         1 VBZ       0.0023
     12 N1         27.1517   47.7411   -2.8455 N.4         1 VBZ       0.2533
     13 C1         27.7930   48.7565   -1.9262 C.3         1 VBZ       0.0102
     14 C9         27.1717   48.0271   -4.3177 C.3         1 VBZ       0.0024
     15 C10        28.3838   47.7073   -5.1386 C.ar        1 VBZ       0.0014
     16 C11        28.4151   46.5424   -5.9445 C.ar        1 VBZ      -0.0553
     17 C12        29.4877   46.2746   -6.8148 C.ar        1 VBZ      -0.0684
     18 C15        29.4896   48.5950   -5.2299 C.ar        1 VBZ      -0.0553
     19 C14        30.5760   48.3218   -6.0833 C.ar        1 VBZ      -0.0684
     20 C13        30.5783   47.1668   -6.8800 C.ar        1 VBZ      -0.0687
     21 H1         25.7745   49.7982   -0.6770 H           1 VBZ       0.2102
     22 H2         27.6593   49.2068    0.2093 H           1 VBZ       0.0677
     23 H3         28.0704   47.0610    0.8961 H           1 VBZ       0.0652
     24 H4         26.5562   45.5067    0.7297 H           1 VBZ       0.2100
     25 H5         27.6522   44.4481   -0.7970 H           1 VBZ       0.2105
     26 H6         30.1424   47.1146   -0.3873 H           1 VBZ       0.0355
     27 H7         31.0055   45.4473   -1.8538 H           1 VBZ       0.0561
     28 H8         30.1911   46.1261   -3.2686 H           1 VBZ       0.0561
     29 H9         32.3464   46.6907   -3.1689 H           1 VBZ       0.2094
     30 H10        29.7876   48.7770   -2.7707 H           1 VBZ       0.0325
     31 H11        29.7402   49.2438   -1.0761 H           1 VBZ       0.0325
     32 H12        26.5034   45.7991   -2.3028 H           1 VBZ       0.0844
     33 H13        27.9760   45.7679   -3.2303 H           1 VBZ       0.0844
     34 H14        26.1580   47.8387   -2.6201 H           1 VBZ       0.2053
     35 H15        27.5765   49.7801   -2.2440 H           1 VBZ       0.0878
     36 H16        26.9086   49.0740   -4.4654 H           1 VBZ       0.0980
     37 H17        26.3218   47.4811   -4.7361 H           1 VBZ       0.0980
     38 H18        27.6346   45.8801   -5.9216 H           1 VBZ       0.0558
     39 H19        29.4830   45.4337   -7.3970 H           1 VBZ       0.0599
     40 H20        29.5153   49.4429   -4.6652 H           1 VBZ       0.0558
     41 H21        31.3601   48.9779   -6.1402 H           1 VBZ       0.0599
     42 H22        31.3582   46.9742   -7.5117 H           1 VBZ       0.0559
@<TRIPOS>BOND
     1     1     2   1
     2     2     3   1
     3     2    13   1
     4     3     4   1
     5     3     5   1
     6     5     6   1
     7     5     7   1
     8     5    11   1
     9     7     8   1
    10     7    10   1
    11     8     9   1
    12    10    13   1
    13    11    12   1
    14    12    13   1
    15    12    14   1
    16    14    15   1
    17    15    16  ar
    18    15    18  ar
    19    16    17  ar
    20    17    20  ar
    21    18    19  ar
    22    19    20  ar
    23     1    21   1
    24     2    22   1
    25     3    23   1
    26     4    24   1
    27     6    25   1
    28     7    26   1
    29     8    27   1
    30     8    28   1
    31     9    29   1
    32    10    30   1
    33    10    31   1
    34    11    32   1
    35    11    33   1
    36    12    34   1
    37    13    35   1
    38    14    36   1
    39    14    37   1
    40    16    38   1
    41    17    39   1
    42    18    40   1
    43    19    41   1
    44    20    42   1
@<TRIPOS>SUBSTRUCTURE
     1  VBZ      2

