@<TRIPOS>MOLECULE
2vo5_ligand_042
    42    44
SMALL
GAST_HUCK
****
This file was generated by PARSER (from files_GN.cpp)

@<TRIPOS>ATOM
      1 O2         30.5788   51.7185   -5.1369 O.3         1 VBZ      -0.3835
      2 C2         31.2903   50.4920   -4.9769 C.3         1 VBZ       0.1262
      3 C3         32.0259   50.0590   -6.3072 C.3         1 VBZ       0.1202
      4 O3         31.7539   50.9619   -7.3872 O.3         1 VBZ      -0.3859
      5 C4         33.5685   49.9176   -6.0612 C.3         1 VBZ       0.1387
      6 O4         34.2438   49.5870   -7.2776 O.3         1 VBZ      -0.3803
      7 C5         33.7672   48.8062   -4.9501 C.3         1 VBZ       0.0237
      8 C6         35.2469   48.3358   -4.7803 C.3         1 VBZ       0.0501
      9 O6         35.6051   48.0101   -3.4402 O.3         1 VBZ      -0.3946
     10 C7         33.0585   49.2650   -3.6137 C.3         1 VBZ       0.0007
     11 C8         34.0633   51.3017   -5.5036 C.3         1 VBZ       0.0023
     12 N1         33.3465   51.6722   -4.2231 N.4         1 VBZ       0.2533
     13 C1         32.3304   50.6307   -3.8152 C.3         1 VBZ       0.0102
     14 C9         34.2291   52.1494   -3.0868 C.3         1 VBZ       0.0024
     15 C10        33.9647   53.5793   -2.7566 C.ar        1 VBZ       0.0014
     16 C11        34.9924   54.5520   -2.8343 C.ar        1 VBZ      -0.0553
     17 C12        34.7391   55.8830   -2.4562 C.ar        1 VBZ      -0.0684
     18 C15        32.6757   53.9770   -2.3247 C.ar        1 VBZ      -0.0553
     19 C14        32.4253   55.3115   -1.9607 C.ar        1 VBZ      -0.0684
     20 C13        33.4610   56.2627   -2.0203 C.ar        1 VBZ      -0.0687
     21 H1         30.1739   51.8870   -4.2640 H           1 VBZ       0.2102
     22 H2         30.5580   49.7197   -4.7025 H           1 VBZ       0.0677
     23 H3         31.6285   49.0883   -6.6316 H           1 VBZ       0.0652
     24 H4         30.7780   50.9311   -7.4988 H           1 VBZ       0.2100
     25 H5         35.1952   49.7158   -7.0929 H           1 VBZ       0.2105
     26 H6         33.2347   47.9105   -5.3012 H           1 VBZ       0.0355
     27 H7         35.9600   49.1033   -5.1224 H           1 VBZ       0.0561
     28 H8         35.4121   47.4367   -5.3891 H           1 VBZ       0.0561
     29 H9         34.8646   47.4505   -3.0943 H           1 VBZ       0.2094
     30 H10        33.7947   49.3727   -2.8054 H           1 VBZ       0.0325
     31 H11        32.3325   48.5017   -3.3143 H           1 VBZ       0.0325
     32 H12        33.8569   52.0941   -6.2363 H           1 VBZ       0.0844
     33 H13        35.1471   51.2813   -5.3960 H           1 VBZ       0.0844
     34 H14        32.7754   52.4829   -4.4764 H           1 VBZ       0.2053
     35 H15        31.8114   50.9179   -2.8980 H           1 VBZ       0.0878
     36 H16        34.0385   51.5906   -2.1636 H           1 VBZ       0.0980
     37 H17        35.2910   51.9918   -3.3173 H           1 VBZ       0.0980
     38 H18        35.9343   54.2827   -3.1367 H           1 VBZ       0.0558
     39 H19        35.4875   56.5687   -2.5157 H           1 VBZ       0.0599
     40 H20        31.9171   53.2892   -2.2653 H           1 VBZ       0.0558
     41 H21        31.5033   55.5849   -1.6405 H           1 VBZ       0.0599
     42 H22        33.2815   57.2284   -1.7502 H           1 VBZ       0.0559
@<TRIPOS>BOND
     1     1     2   1
     2     2     3   1
     3     2    13   1
     4     3     4   1
     5     3     5   1
     6     5     6   1
     7     5     7   1
     8     5    11   1
     9     7     8   1
    10     7    10   1
    11     8     9   1
    12    10    13   1
    13    11    12   1
    14    12    13   1
    15    12    14   1
    16    14    15   1
    17    15    16  ar
    18    15    18  ar
    19    16    17  ar
    20    17    20  ar
    21    18    19  ar
    22    19    20  ar
    23     1    21   1
    24     2    22   1
    25     3    23   1
    26     4    24   1
    27     6    25   1
    28     7    26   1
    29     8    27   1
    30     8    28   1
    31     9    29   1
    32    10    30   1
    33    10    31   1
    34    11    32   1
    35    11    33   1
    36    12    34   1
    37    13    35   1
    38    14    36   1
    39    14    37   1
    40    16    38   1
    41    17    39   1
    42    18    40   1
    43    19    41   1
    44    20    42   1
@<TRIPOS>SUBSTRUCTURE
     1  VBZ      2

