@<TRIPOS>MOLECULE
2vo5_ligand_012
    42    44
SMALL
GAST_HUCK
****
This file was generated by PARSER (from files_GN.cpp)

@<TRIPOS>ATOM
      1 O2         29.7116   47.1845    0.9549 O.3         1 VBZ      -0.3835
      2 C2         28.7344   46.8806   -0.0453 C.3         1 VBZ       0.1262
      3 C3         27.7825   48.1080   -0.3153 C.3         1 VBZ       0.1202
      4 O3         28.1577   49.2110    0.5122 O.3         1 VBZ      -0.3859
      5 C4         27.7985   48.4823   -1.8342 C.3         1 VBZ       0.1387
      6 O4         26.9598   49.6017   -2.0830 O.3         1 VBZ      -0.3803
      7 C5         27.3151   47.2172   -2.6478 C.3         1 VBZ       0.0237
      8 C6         27.0534   47.5203   -4.1565 C.3         1 VBZ       0.0501
      9 O6         27.2922   46.4012   -5.0154 O.3         1 VBZ      -0.3946
     10 C7         28.2910   46.0111   -2.3719 C.3         1 VBZ       0.0007
     11 C8         29.2858   48.7833   -2.2085 C.3         1 VBZ       0.0023
     12 N1         30.1980   47.6081   -1.9425 N.4         1 VBZ       0.2533
     13 C1         29.4256   46.4309   -1.3856 C.3         1 VBZ       0.0102
     14 C9         31.1296   47.2535   -3.0734 C.3         1 VBZ       0.0024
     15 C10        32.2764   48.1915   -3.2182 C.ar        1 VBZ       0.0014
     16 C11        33.5716   47.7947   -2.8042 C.ar        1 VBZ      -0.0553
     17 C12        34.6555   48.6842   -2.8886 C.ar        1 VBZ      -0.0684
     18 C15        32.1017   49.4982   -3.7367 C.ar        1 VBZ      -0.0553
     19 C14        33.1846   50.3894   -3.8121 C.ar        1 VBZ      -0.0684
     20 C13        34.4612   49.9858   -3.3879 C.ar        1 VBZ      -0.0687
     21 H1         30.3861   46.4700    0.8997 H           1 VBZ       0.2102
     22 H2         28.1437   46.0461    0.3539 H           1 VBZ       0.0677
     23 H3         26.7664   47.8323   -0.0117 H           1 VBZ       0.0652
     24 H4         27.9015   50.0268    0.0353 H           1 VBZ       0.2100
     25 H5         27.4323   50.3839   -1.7280 H           1 VBZ       0.2105
     26 H6         26.3348   46.9219   -2.2578 H           1 VBZ       0.0355
     27 H7         27.6803   48.3393   -4.5257 H           1 VBZ       0.0561
     28 H8         26.0072   47.8355   -4.3030 H           1 VBZ       0.0561
     29 H9         27.2529   46.7846   -5.9251 H           1 VBZ       0.2094
     30 H10        28.7504   45.6382   -3.2866 H           1 VBZ       0.0325
     31 H11        27.7348   45.1734   -1.9507 H           1 VBZ       0.0325
     32 H12        29.3466   49.1222   -3.2399 H           1 VBZ       0.0844
     33 H13        29.6565   49.6127   -1.6086 H           1 VBZ       0.0844
     34 H14        30.8143   47.8932   -1.1777 H           1 VBZ       0.2053
     35 H15        30.0860   45.5854   -1.1700 H           1 VBZ       0.0878
     36 H16        31.5453   46.2540   -2.9160 H           1 VBZ       0.0980
     37 H17        30.5671   47.2137   -4.0072 H           1 VBZ       0.0980
     38 H18        33.7294   46.8491   -2.4465 H           1 VBZ       0.0558
     39 H19        35.5845   48.3892   -2.5760 H           1 VBZ       0.0599
     40 H20        31.1770   49.8212   -4.0256 H           1 VBZ       0.0558
     41 H21        33.0447   51.3349   -4.1716 H           1 VBZ       0.0599
     42 H22        35.2520   50.6349   -3.4387 H           1 VBZ       0.0559
@<TRIPOS>BOND
     1     1     2   1
     2     2     3   1
     3     2    13   1
     4     3     4   1
     5     3     5   1
     6     5     6   1
     7     5     7   1
     8     5    11   1
     9     7     8   1
    10     7    10   1
    11     8     9   1
    12    10    13   1
    13    11    12   1
    14    12    13   1
    15    12    14   1
    16    14    15   1
    17    15    16  ar
    18    15    18  ar
    19    16    17  ar
    20    17    20  ar
    21    18    19  ar
    22    19    20  ar
    23     1    21   1
    24     2    22   1
    25     3    23   1
    26     4    24   1
    27     6    25   1
    28     7    26   1
    29     8    27   1
    30     8    28   1
    31     9    29   1
    32    10    30   1
    33    10    31   1
    34    11    32   1
    35    11    33   1
    36    12    34   1
    37    13    35   1
    38    14    36   1
    39    14    37   1
    40    16    38   1
    41    17    39   1
    42    18    40   1
    43    19    41   1
    44    20    42   1
@<TRIPOS>SUBSTRUCTURE
     1  VBZ      2

