@<TRIPOS>MOLECULE
2vo5_ligand_055
    42    44
SMALL
GAST_HUCK
****
This file was generated by PARSER (from files_GN.cpp)

@<TRIPOS>ATOM
      1 O2         32.4006   45.3285   -8.5935 O.3         1 VBZ      -0.3835
      2 C2         31.0447   44.8895   -8.5926 C.3         1 VBZ       0.1262
      3 C3         30.9270   43.3221   -8.6155 C.3         1 VBZ       0.1202
      4 O3         32.1945   42.6804   -8.7435 O.3         1 VBZ      -0.3859
      5 C4         30.1685   42.8203   -7.3349 C.3         1 VBZ       0.1387
      6 O4         30.1327   41.3931   -7.3479 O.3         1 VBZ      -0.3803
      7 C5         28.7171   43.4276   -7.3456 C.3         1 VBZ       0.0237
      8 C6         27.7690   42.8320   -6.2604 C.3         1 VBZ       0.0501
      9 O6         27.8519   43.5130   -5.0082 O.3         1 VBZ      -0.3946
     10 C7         28.8147   44.9964   -7.3634 C.3         1 VBZ       0.0007
     11 C8         30.9446   43.3871   -6.0968 C.3         1 VBZ       0.0023
     12 N1         31.0147   44.9046   -6.1158 N.4         1 VBZ       0.2533
     13 C1         30.3155   45.4686   -7.3306 C.3         1 VBZ       0.0102
     14 C9         30.6980   45.5364   -4.7892 C.3         1 VBZ       0.0024
     15 C10        31.0338   46.9853   -4.6529 C.ar        1 VBZ       0.0014
     16 C11        30.2620   47.9712   -5.3078 C.ar        1 VBZ      -0.0553
     17 C12        30.5828   49.3369   -5.1896 C.ar        1 VBZ      -0.0684
     18 C15        32.0984   47.4172   -3.8209 C.ar        1 VBZ      -0.0553
     19 C14        32.4180   48.7816   -3.6949 C.ar        1 VBZ      -0.0684
     20 C13        31.6653   49.7448   -4.3884 C.ar        1 VBZ      -0.0687
     21 H1         32.7736   45.0172   -9.4438 H           1 VBZ       0.2102
     22 H2         30.5809   45.3129   -9.4847 H           1 VBZ       0.0677
     23 H3         30.3703   43.0214   -9.4991 H           1 VBZ       0.0652
     24 H4         31.9923   41.7188   -8.7857 H           1 VBZ       0.2100
     25 H5         29.6754   41.1414   -6.5088 H           1 VBZ       0.2105
     26 H6         28.2692   43.1237   -8.2903 H           1 VBZ       0.0355
     27 H7         27.9760   41.7656   -6.1060 H           1 VBZ       0.0561
     28 H8         26.7383   42.8926   -6.6080 H           1 VBZ       0.0561
     29 H9         27.7861   42.8129   -4.3048 H           1 VBZ       0.2094
     30 H10        28.2873   45.4411   -6.5180 H           1 VBZ       0.0325
     31 H11        28.3486   45.3920   -8.2712 H           1 VBZ       0.0325
     32 H12        31.9692   43.0012   -6.1171 H           1 VBZ       0.0844
     33 H13        30.4932   42.9950   -5.1842 H           1 VBZ       0.0844
     34 H14        32.0020   45.1264   -6.2703 H           1 VBZ       0.2053
     35 H15        30.3833   46.5664   -7.3738 H           1 VBZ       0.0878
     36 H16        29.6507   45.3922   -4.5289 H           1 VBZ       0.0980
     37 H17        31.2768   44.9910   -4.0398 H           1 VBZ       0.0980
     38 H18        29.4564   47.7019   -5.8753 H           1 VBZ       0.0558
     39 H19        30.0395   50.0409   -5.6991 H           1 VBZ       0.0599
     40 H20        32.6562   46.7371   -3.2942 H           1 VBZ       0.0558
     41 H21        33.1923   49.0789   -3.0978 H           1 VBZ       0.0599
     42 H22        31.9001   50.7388   -4.3115 H           1 VBZ       0.0559
@<TRIPOS>BOND
     1     1     2   1
     2     2     3   1
     3     2    13   1
     4     3     4   1
     5     3     5   1
     6     5     6   1
     7     5     7   1
     8     5    11   1
     9     7     8   1
    10     7    10   1
    11     8     9   1
    12    10    13   1
    13    11    12   1
    14    12    13   1
    15    12    14   1
    16    14    15   1
    17    15    16  ar
    18    15    18  ar
    19    16    17  ar
    20    17    20  ar
    21    18    19  ar
    22    19    20  ar
    23     1    21   1
    24     2    22   1
    25     3    23   1
    26     4    24   1
    27     6    25   1
    28     7    26   1
    29     8    27   1
    30     8    28   1
    31     9    29   1
    32    10    30   1
    33    10    31   1
    34    11    32   1
    35    11    33   1
    36    12    34   1
    37    13    35   1
    38    14    36   1
    39    14    37   1
    40    16    38   1
    41    17    39   1
    42    18    40   1
    43    19    41   1
    44    20    42   1
@<TRIPOS>SUBSTRUCTURE
     1  VBZ      2

