@<TRIPOS>MOLECULE
2vo5_ligand_017
    42    44
SMALL
GAST_HUCK
****
This file was generated by PARSER (from files_GN.cpp)

@<TRIPOS>ATOM
      1 O2         31.5666   47.3525   -3.0410 O.3         1 VBZ      -0.3835
      2 C2         30.5541   46.8830   -2.1409 C.3         1 VBZ       0.1262
      3 C3         30.0720   47.9890   -1.1319 C.3         1 VBZ       0.1202
      4 O3         30.8074   49.2104   -1.2683 O.3         1 VBZ      -0.3859
      5 C4         28.5127   48.1979   -1.2432 C.3         1 VBZ       0.1387
      6 O4         28.1204   49.2189   -0.3157 O.3         1 VBZ      -0.3803
      7 C5         27.8227   46.8102   -0.8991 C.3         1 VBZ       0.0237
      8 C6         26.2771   46.8467   -0.7400 C.3         1 VBZ       0.0501
      9 O6         25.5742   46.4325   -1.9216 O.3         1 VBZ      -0.3946
     10 C7         28.3132   45.7191   -1.9272 C.3         1 VBZ       0.0007
     11 C8         28.1520   48.5399   -2.7274 C.3         1 VBZ       0.0023
     12 N1         28.7432   47.5147   -3.6725 N.4         1 VBZ       0.2533
     13 C1         29.3331   46.3253   -2.9502 C.3         1 VBZ       0.0102
     14 C9         27.8688   47.1490   -4.8339 C.3         1 VBZ       0.0024
     15 C10        28.6646   46.8147   -6.0496 C.ar        1 VBZ       0.0014
     16 C11        28.7221   45.4911   -6.5474 C.ar        1 VBZ      -0.0553
     17 C12        29.4720   45.1884   -7.7012 C.ar        1 VBZ      -0.0684
     18 C15        29.3810   47.8269   -6.7383 C.ar        1 VBZ      -0.0553
     19 C14        30.0877   47.5318   -7.9188 C.ar        1 VBZ      -0.0684
     20 C13        30.1396   46.2091   -8.3946 C.ar        1 VBZ      -0.0687
     21 H1         31.9404   46.5389   -3.4450 H           1 VBZ       0.2102
     22 H2         30.9987   46.0516   -1.5729 H           1 VBZ       0.0677
     23 H3         30.2914   47.6364   -0.1231 H           1 VBZ       0.0652
     24 H4         30.2215   49.8401   -1.7350 H           1 VBZ       0.2100
     25 H5         28.3367   50.0697   -0.7602 H           1 VBZ       0.2105
     26 H6         28.1921   46.5176    0.1020 H           1 VBZ       0.0355
     27 H7         25.9956   46.1653    0.0875 H           1 VBZ       0.0561
     28 H8         25.9650   47.8443   -0.4640 H           1 VBZ       0.0561
     29 H9         24.8145   45.9037   -1.5691 H           1 VBZ       0.2094
     30 H10        27.4756   45.2703   -2.4511 H           1 VBZ       0.0325
     31 H11        28.8009   44.9234   -1.3822 H           1 VBZ       0.0325
     32 H12        28.5564   49.5201   -2.9876 H           1 VBZ       0.0844
     33 H13        27.0693   48.6127   -2.8310 H           1 VBZ       0.0844
     34 H14        29.5452   47.9927   -4.0957 H           1 VBZ       0.2053
     35 H15        29.6897   45.5549   -3.6472 H           1 VBZ       0.0878
     36 H16        27.2225   47.9852   -5.1037 H           1 VBZ       0.0980
     37 H17        27.1966   46.3237   -4.5618 H           1 VBZ       0.0980
     38 H18        28.2295   44.7356   -6.0631 H           1 VBZ       0.0558
     39 H19        29.5229   44.2189   -8.0278 H           1 VBZ       0.0599
     40 H20        29.3806   48.7890   -6.3861 H           1 VBZ       0.0558
     41 H21        30.5749   48.2732   -8.4186 H           1 VBZ       0.0599
     42 H22        30.6631   45.9890   -9.2415 H           1 VBZ       0.0559
@<TRIPOS>BOND
     1     1     2   1
     2     2     3   1
     3     2    13   1
     4     3     4   1
     5     3     5   1
     6     5     6   1
     7     5     7   1
     8     5    11   1
     9     7     8   1
    10     7    10   1
    11     8     9   1
    12    10    13   1
    13    11    12   1
    14    12    13   1
    15    12    14   1
    16    14    15   1
    17    15    16  ar
    18    15    18  ar
    19    16    17  ar
    20    17    20  ar
    21    18    19  ar
    22    19    20  ar
    23     1    21   1
    24     2    22   1
    25     3    23   1
    26     4    24   1
    27     6    25   1
    28     7    26   1
    29     8    27   1
    30     8    28   1
    31     9    29   1
    32    10    30   1
    33    10    31   1
    34    11    32   1
    35    11    33   1
    36    12    34   1
    37    13    35   1
    38    14    36   1
    39    14    37   1
    40    16    38   1
    41    17    39   1
    42    18    40   1
    43    19    41   1
    44    20    42   1
@<TRIPOS>SUBSTRUCTURE
     1  VBZ      2

