@<TRIPOS>MOLECULE
2vo5_ligand_002
    42    44
SMALL
GAST_HUCK
****
This file was generated by PARSER (from files_GN.cpp)

@<TRIPOS>ATOM
      1 O2         26.6400   50.7120   -1.6389 O.3         1 VBZ      -0.3835
      2 C2         26.5902   49.4347   -1.0019 C.3         1 VBZ       0.1262
      3 C3         25.9787   48.3443   -1.9575 C.3         1 VBZ       0.1202
      4 O3         25.5614   48.8926   -3.2147 O.3         1 VBZ      -0.3859
      5 C4         27.0106   47.1827   -2.1731 C.3         1 VBZ       0.1387
      6 O4         26.5191   46.2348   -3.1182 O.3         1 VBZ      -0.3803
      7 C5         27.3076   46.5263   -0.7641 C.3         1 VBZ       0.0237
      8 C6         28.2291   45.2713   -0.8394 C.3         1 VBZ       0.0501
      9 O6         28.4069   44.6926    0.4472 O.3         1 VBZ      -0.3946
     10 C7         27.8652   47.6253    0.2206 C.3         1 VBZ       0.0007
     11 C8         28.3348   47.8310   -2.7120 C.3         1 VBZ       0.0023
     12 N1         28.8958   48.8503   -1.7410 N.4         1 VBZ       0.2533
     13 C1         28.0202   49.0004   -0.5194 C.3         1 VBZ       0.0102
     14 C9         30.3619   48.6949   -1.4349 C.3         1 VBZ       0.0024
     15 C10        31.2331   48.6452   -2.6439 C.ar        1 VBZ       0.0014
     16 C11        31.8464   49.8159   -3.1618 C.ar        1 VBZ      -0.0553
     17 C12        32.6632   49.7650   -4.3079 C.ar        1 VBZ      -0.0684
     18 C15        31.4784   47.4173   -3.3123 C.ar        1 VBZ      -0.0553
     19 C14        32.2852   47.3692   -4.4692 C.ar        1 VBZ      -0.0684
     20 C13        32.8754   48.5370   -4.9704 C.ar        1 VBZ      -0.0687
     21 H1         26.6641   51.3550   -0.9046 H           1 VBZ       0.2102
     22 H2         25.9366   49.5470   -0.1317 H           1 VBZ       0.0677
     23 H3         25.0763   47.9203   -1.5036 H           1 VBZ       0.0652
     24 H4         24.8571   49.5377   -2.9862 H           1 VBZ       0.2100
     25 H5         26.1599   45.4806   -2.6033 H           1 VBZ       0.2105
     26 H6         26.3553   46.1593   -0.3578 H           1 VBZ       0.0355
     27 H7         29.2190   45.5357   -1.2174 H           1 VBZ       0.0561
     28 H8         27.8079   44.5153   -1.4973 H           1 VBZ       0.0561
     29 H9         27.7618   43.9556    0.5008 H           1 VBZ       0.2094
     30 H10        28.8245   47.3332    0.6536 H           1 VBZ       0.0325
     31 H11        27.1754   47.7445    1.0653 H           1 VBZ       0.0325
     32 H12        28.1174   48.3528   -3.6499 H           1 VBZ       0.0844
     33 H13        29.0534   47.0240   -2.9336 H           1 VBZ       0.0844
     34 H14        28.8428   49.7553   -2.2027 H           1 VBZ       0.2053
     35 H15        28.4054   49.7600    0.1631 H           1 VBZ       0.0878
     36 H16        30.6974   49.5328   -0.8249 H           1 VBZ       0.0980
     37 H17        30.5205   47.7929   -0.8415 H           1 VBZ       0.0980
     38 H18        31.7053   50.7145   -2.6953 H           1 VBZ       0.0558
     39 H19        33.0996   50.6195   -4.6638 H           1 VBZ       0.0599
     40 H20        31.0626   46.5451   -2.9652 H           1 VBZ       0.0558
     41 H21        32.4311   46.4802   -4.9579 H           1 VBZ       0.0599
     42 H22        33.4699   48.5057   -5.7975 H           1 VBZ       0.0559
@<TRIPOS>BOND
     1     1     2   1
     2     2     3   1
     3     2    13   1
     4     3     4   1
     5     3     5   1
     6     5     6   1
     7     5     7   1
     8     5    11   1
     9     7     8   1
    10     7    10   1
    11     8     9   1
    12    10    13   1
    13    11    12   1
    14    12    13   1
    15    12    14   1
    16    14    15   1
    17    15    16  ar
    18    15    18  ar
    19    16    17  ar
    20    17    20  ar
    21    18    19  ar
    22    19    20  ar
    23     1    21   1
    24     2    22   1
    25     3    23   1
    26     4    24   1
    27     6    25   1
    28     7    26   1
    29     8    27   1
    30     8    28   1
    31     9    29   1
    32    10    30   1
    33    10    31   1
    34    11    32   1
    35    11    33   1
    36    12    34   1
    37    13    35   1
    38    14    36   1
    39    14    37   1
    40    16    38   1
    41    17    39   1
    42    18    40   1
    43    19    41   1
    44    20    42   1
@<TRIPOS>SUBSTRUCTURE
     1  VBZ      2

