@<TRIPOS>MOLECULE
2vo5_ligand_040
    42    44
SMALL
GAST_HUCK
****
This file was generated by PARSER (from files_GN.cpp)

@<TRIPOS>ATOM
      1 O2         31.0211   54.6094   -3.6868 O.3         1 VBZ      -0.3835
      2 C2         32.1900   55.2969   -4.1387 C.3         1 VBZ       0.1262
      3 C3         32.9666   55.9797   -2.9536 C.3         1 VBZ       0.1202
      4 O3         32.3514   55.7264   -1.6872 O.3         1 VBZ      -0.3859
      5 C4         34.4666   55.5060   -2.9382 C.3         1 VBZ       0.1387
      6 O4         35.1463   56.1593   -1.8611 O.3         1 VBZ      -0.3803
      7 C5         35.0988   55.8669   -4.3404 C.3         1 VBZ       0.0237
      8 C6         36.6491   55.7328   -4.4403 C.3         1 VBZ       0.0501
      9 O6         37.1159   54.3859   -4.4590 O.3         1 VBZ      -0.3946
     10 C7         34.3410   55.0933   -5.4830 C.3         1 VBZ       0.0007
     11 C8         34.4431   53.9452   -2.7804 C.3         1 VBZ       0.0023
     12 N1         33.6326   53.2976   -3.8819 N.4         1 VBZ       0.2533
     13 C1         33.1318   54.3024   -4.8951 C.3         1 VBZ       0.0102
     14 C9         34.2157   52.0412   -4.4764 C.3         1 VBZ       0.0024
     15 C10        33.6008   50.8172   -3.8979 C.ar        1 VBZ       0.0014
     16 C11        32.1931   50.6828   -3.9425 C.ar        1 VBZ      -0.0553
     17 C12        31.5657   49.5084   -3.4934 C.ar        1 VBZ      -0.0684
     18 C15        34.3712   49.7384   -3.3995 C.ar        1 VBZ      -0.0553
     19 C14        33.7457   48.5488   -2.9727 C.ar        1 VBZ      -0.0684
     20 C13        32.3422   48.4355   -3.0194 C.ar        1 VBZ      -0.0687
     21 H1         30.5011   54.4089   -4.4951 H           1 VBZ       0.2102
     22 H2         31.8501   56.0672   -4.8382 H           1 VBZ       0.0677
     23 H3         32.9249   57.0652   -3.0859 H           1 VBZ       0.0652
     24 H4         32.9821   56.0819   -1.0214 H           1 VBZ       0.2100
     25 H5         35.7767   55.5035   -1.4927 H           1 VBZ       0.2105
     26 H6         34.9067   56.9347   -4.4962 H           1 VBZ       0.0355
     27 H7         37.1252   56.2546   -3.6057 H           1 VBZ       0.0561
     28 H8         36.9854   56.2101   -5.3639 H           1 VBZ       0.0561
     29 H9         38.0916   54.4470   -4.4398 H           1 VBZ       0.2094
     30 H10        34.9980   54.3892   -5.9979 H           1 VBZ       0.0325
     31 H11        33.9806   55.7978   -6.2376 H           1 VBZ       0.0325
     32 H12        35.4670   53.5728   -2.7312 H           1 VBZ       0.0844
     33 H13        33.9829   53.6779   -1.8258 H           1 VBZ       0.0844
     34 H14        32.7793   52.9981   -3.4069 H           1 VBZ       0.2053
     35 H15        32.5652   53.8227   -5.7022 H           1 VBZ       0.0878
     36 H16        34.0116   51.9848   -5.5492 H           1 VBZ       0.0980
     37 H17        35.3054   52.0205   -4.3842 H           1 VBZ       0.0980
     38 H18        31.6108   51.4386   -4.3164 H           1 VBZ       0.0558
     39 H19        30.5480   49.4278   -3.5401 H           1 VBZ       0.0599
     40 H20        35.3936   49.7950   -3.3720 H           1 VBZ       0.0558
     41 H21        34.3091   47.7575   -2.6438 H           1 VBZ       0.0599
     42 H22        31.8858   47.5718   -2.7187 H           1 VBZ       0.0559
@<TRIPOS>BOND
     1     1     2   1
     2     2     3   1
     3     2    13   1
     4     3     4   1
     5     3     5   1
     6     5     6   1
     7     5     7   1
     8     5    11   1
     9     7     8   1
    10     7    10   1
    11     8     9   1
    12    10    13   1
    13    11    12   1
    14    12    13   1
    15    12    14   1
    16    14    15   1
    17    15    16  ar
    18    15    18  ar
    19    16    17  ar
    20    17    20  ar
    21    18    19  ar
    22    19    20  ar
    23     1    21   1
    24     2    22   1
    25     3    23   1
    26     4    24   1
    27     6    25   1
    28     7    26   1
    29     8    27   1
    30     8    28   1
    31     9    29   1
    32    10    30   1
    33    10    31   1
    34    11    32   1
    35    11    33   1
    36    12    34   1
    37    13    35   1
    38    14    36   1
    39    14    37   1
    40    16    38   1
    41    17    39   1
    42    18    40   1
    43    19    41   1
    44    20    42   1
@<TRIPOS>SUBSTRUCTURE
     1  VBZ      2

