@<TRIPOS>MOLECULE
2vot_ligand_018
    41    43
SMALL
GAST_HUCK
****
This file was generated by PARSER (from files_GN.cpp)

@<TRIPOS>ATOM
      1 O6B        26.1773   47.8299   -1.7237 O.3         1 NHV      -0.3919
      2 C6B        26.5186   46.4467   -1.7475 C.3         1 NHV       0.0768
      3 C5B        28.0464   46.1901   -1.5476 C.3         1 NHV       0.1168
      4 C4B        28.7151   47.2238   -0.5644 C.3         1 NHV       0.1178
      5 O4B        29.6731   46.5305    0.2384 O.3         1 NHV      -0.3858
      6 C3B        29.4122   48.4065   -1.3071 C.3         1 NHV       0.1252
      7 O3B        28.4213   49.2220   -1.9358 O.3         1 NHV      -0.3839
      8 O2B        30.9335   48.9678   -3.1595 O.3         1 NHV      -0.3700
      9 N1B        28.7475   46.0997   -2.8142 N.pl3       1 NHV      -0.2494
     10 C8B        28.5013   45.2379   -3.8170 C.2         1 NHV       0.0253
     11 C7B        29.3903   45.5093   -4.8519 C.2         1 NHV       0.0014
     12 N2B        30.1830   46.5106   -4.4473 N.2         1 NHV      -0.3297
     13 C1B        29.7863   46.8629   -3.2140 C.2         1 NHV       0.1428
     14 C7         29.4386   44.8599   -6.1738 C.3         1 NHV       0.0480
     15 N1         30.7450   44.3919   -6.5118 N.pl3       1 NHV      -0.3158
     16 C1         31.7068   45.0251   -7.2385 C.ar        1 NHV       0.0390
     17 C6         31.9435   44.5339   -8.5435 C.ar        1 NHV      -0.0444
     18 C5         32.8949   45.1409   -9.3856 C.ar        1 NHV      -0.0737
     19 C4         33.6408   46.2419   -8.9270 C.ar        1 NHV      -0.0751
     20 C3         33.4195   46.7450   -7.6252 C.ar        1 NHV      -0.0737
     21 C2         32.4567   46.1451   -6.7909 C.ar        1 NHV      -0.0444
     22 C20        30.4197   47.8936   -2.3722 C.3         1 NHV       0.1578
     23 H1         25.2187   47.8639   -1.9344 H           1 NHV       0.2095
     24 H2         26.1998   46.0485   -2.7103 H           1 NHV       0.0589
     25 H3         25.9439   45.9286   -0.9718 H           1 NHV       0.0589
     26 H4         28.1188   45.1992   -1.0791 H           1 NHV       0.0699
     27 H5         27.9751   47.6306    0.1329 H           1 NHV       0.0654
     28 H6         30.5003   46.5006   -0.2935 H           1 NHV       0.2100
     29 H7         29.9599   49.0253   -0.5922 H           1 NHV       0.0675
     30 H8         28.3545   50.0429   -1.3990 H           1 NHV       0.2103
     31 H9         30.3535   49.7378   -2.9817 H           1 NHV       0.2138
     32 H10        27.7803   44.5162   -3.8208 H           1 NHV       0.0663
     33 H11        29.0572   45.5408   -6.9364 H           1 NHV       0.0617
     34 H12        28.7844   43.9853   -6.1695 H           1 NHV       0.0617
     35 H13        30.9366   43.4732   -6.2629 H           1 NHV       0.1774
     36 H14        31.4078   43.7368   -8.9037 H           1 NHV       0.0515
     37 H15        33.0371   44.7877  -10.3382 H           1 NHV       0.0583
     38 H16        34.3330   46.6824   -9.5385 H           1 NHV       0.0505
     39 H17        33.9563   47.5503   -7.2941 H           1 NHV       0.0583
     40 H18        32.3043   46.5411   -5.8614 H           1 NHV       0.0515
     41 H19        31.2720   47.4292   -1.8690 H           1 NHV       0.0858
@<TRIPOS>BOND
     1     1     2   1
     2     2     3   1
     3     3     4   1
     4     3     9   1
     5     4     5   1
     6     4     6   1
     7     6     7   1
     8     6    22   1
     9    22     8   1
    10     9    10   1
    11     9    13   1
    12    10    11   2
    13    11    12   1
    14    11    14   1
    15    12    13   2
    16    13    22   1
    17    14    15   1
    18    15    16   1
    19    16    17  ar
    20    16    21  ar
    21    17    18  ar
    22    18    19  ar
    23    19    20  ar
    24    20    21  ar
    25     1    23   1
    26     2    24   1
    27     2    25   1
    28     3    26   1
    29     4    27   1
    30     5    28   1
    31     6    29   1
    32     7    30   1
    33     8    31   1
    34    10    32   1
    35    14    33   1
    36    14    34   1
    37    15    35   1
    38    17    36   1
    39    18    37   1
    40    19    38   1
    41    20    39   1
    42    21    40   1
    43    22    41   1
@<TRIPOS>SUBSTRUCTURE
     1  NHV      2

