@<TRIPOS>MOLECULE
2vot_ligand_009
    41    43
SMALL
GAST_HUCK
****
This file was generated by PARSER (from files_GN.cpp)

@<TRIPOS>ATOM
      1 O6B        26.0141   50.5175   -1.3781 O.3         1 NHV      -0.3919
      2 C6B        26.5072   49.7712   -2.4868 C.3         1 NHV       0.0768
      3 C5B        26.5245   48.2328   -2.2349 C.3         1 NHV       0.1168
      4 C4B        26.9937   47.8016   -0.8000 C.3         1 NHV       0.1178
      5 O4B        26.3722   46.5536   -0.4797 O.3         1 NHV      -0.3858
      6 C3B        28.5371   47.6294   -0.6769 C.3         1 NHV       0.1252
      7 O3B        29.1896   48.8980   -0.6555 O.3         1 NHV      -0.3839
      8 O2B        30.5295   46.8626   -1.8938 O.3         1 NHV      -0.3700
      9 N1B        27.3037   47.5789   -3.2625 N.pl3       1 NHV      -0.2494
     10 C8B        27.0324   47.5272   -4.5793 C.2         1 NHV       0.0253
     11 C7B        28.0641   46.8326   -5.2026 C.2         1 NHV       0.0014
     12 N2B        28.9334   46.4594   -4.2545 N.2         1 NHV      -0.3297
     13 C1B        28.4689   46.9187   -3.0807 C.2         1 NHV       0.1428
     14 C7         28.2464   46.5561   -6.6350 C.3         1 NHV       0.0480
     15 N1         29.3791   47.2934   -7.1031 N.pl3       1 NHV      -0.3158
     16 C1         30.6055   46.8526   -7.4902 C.ar        1 NHV       0.0390
     17 C6         30.9110   45.5278   -7.8933 C.ar        1 NHV      -0.0444
     18 C5         32.2149   45.1780   -8.2908 C.ar        1 NHV      -0.0737
     19 C4         33.2400   46.1409   -8.2806 C.ar        1 NHV      -0.0751
     20 C3         32.9577   47.4569   -7.8742 C.ar        1 NHV      -0.0737
     21 C2         31.6533   47.8066   -7.4795 C.ar        1 NHV      -0.0444
     22 C20        29.1173   46.6929   -1.7758 C.3         1 NHV       0.1578
     23 H1         26.7966   50.9934   -1.0269 H           1 NHV       0.2095
     24 H2         27.5009   50.1363   -2.7451 H           1 NHV       0.0589
     25 H3         25.8490   49.9879   -3.3307 H           1 NHV       0.0589
     26 H4         25.4853   47.8999   -2.3392 H           1 NHV       0.0699
     27 H5         26.6540   48.5202   -0.0510 H           1 NHV       0.0654
     28 H6         26.8306   46.2272    0.3246 H           1 NHV       0.2100
     29 H7         28.7576   47.1808    0.2967 H           1 NHV       0.0675
     30 H8         29.0076   49.3502   -1.5062 H           1 NHV       0.2103
     31 H9         30.8549   46.0173   -2.2759 H           1 NHV       0.2138
     32 H10        26.2199   47.9379   -5.0435 H           1 NHV       0.0663
     33 H11        27.3737   46.8896   -7.1947 H           1 NHV       0.0617
     34 H12        28.3299   45.4797   -6.7697 H           1 NHV       0.0617
     35 H13        29.2530   48.2561   -7.1337 H           1 NHV       0.1774
     36 H14        30.1944   44.8011   -7.9241 H           1 NHV       0.0515
     37 H15        32.4121   44.2246   -8.6019 H           1 NHV       0.0583
     38 H16        34.1847   45.8848   -8.5742 H           1 NHV       0.0505
     39 H17        33.7003   48.1607   -7.8672 H           1 NHV       0.0583
     40 H18        31.4721   48.7728   -7.1925 H           1 NHV       0.0515
     41 H19        28.9305   45.6531   -1.4916 H           1 NHV       0.0858
@<TRIPOS>BOND
     1     1     2   1
     2     2     3   1
     3     3     4   1
     4     3     9   1
     5     4     5   1
     6     4     6   1
     7     6     7   1
     8     6    22   1
     9    22     8   1
    10     9    10   1
    11     9    13   1
    12    10    11   2
    13    11    12   1
    14    11    14   1
    15    12    13   2
    16    13    22   1
    17    14    15   1
    18    15    16   1
    19    16    17  ar
    20    16    21  ar
    21    17    18  ar
    22    18    19  ar
    23    19    20  ar
    24    20    21  ar
    25     1    23   1
    26     2    24   1
    27     2    25   1
    28     3    26   1
    29     4    27   1
    30     5    28   1
    31     6    29   1
    32     7    30   1
    33     8    31   1
    34    10    32   1
    35    14    33   1
    36    14    34   1
    37    15    35   1
    38    17    36   1
    39    18    37   1
    40    19    38   1
    41    20    39   1
    42    21    40   1
    43    22    41   1
@<TRIPOS>SUBSTRUCTURE
     1  NHV      2

