@<TRIPOS>MOLECULE
2vot_ligand_017
    41    43
SMALL
GAST_HUCK
****
This file was generated by PARSER (from files_GN.cpp)

@<TRIPOS>ATOM
      1 O6B        28.8780   46.5196   -6.0735 O.3         1 NHV      -0.3919
      2 C6B        28.3218   46.9010   -4.8149 C.3         1 NHV       0.0768
      3 C5B        29.0210   46.1599   -3.6292 C.3         1 NHV       0.1168
      4 C4B        28.1055   46.0009   -2.3647 C.3         1 NHV       0.1178
      5 O4B        28.5994   44.9333   -1.5515 O.3         1 NHV      -0.3858
      6 C3B        28.0591   47.3003   -1.5097 C.3         1 NHV       0.1252
      7 O3B        27.3748   48.3304   -2.2203 O.3         1 NHV      -0.3839
      8 O2B        29.4631   49.1175   -0.6551 O.3         1 NHV      -0.3700
      9 N1B        30.2465   46.8467   -3.2999 N.pl3       1 NHV      -0.2494
     10 C8B        31.3439   46.9345   -4.0632 C.2         1 NHV       0.0253
     11 C7B        32.2195   47.8312   -3.4609 C.2         1 NHV       0.0014
     12 N2B        31.6573   48.2279   -2.3024 N.2         1 NHV      -0.3297
     13 C1B        30.4585   47.6208   -2.2151 C.2         1 NHV       0.1428
     14 C7         33.4658   48.3548   -4.0547 C.3         1 NHV       0.0480
     15 N1         33.1896   48.8697   -5.3668 N.pl3       1 NHV      -0.3158
     16 C1         32.6675   48.1674   -6.4093 C.ar        1 NHV       0.0390
     17 C6         33.2021   46.9563   -6.8940 C.ar        1 NHV      -0.0444
     18 C5         32.4991   46.1895   -7.8541 C.ar        1 NHV      -0.0737
     19 C4         31.2729   46.6638   -8.3584 C.ar        1 NHV      -0.0751
     20 C3         30.7518   47.8856   -7.9177 C.ar        1 NHV      -0.0737
     21 C2         31.4581   48.6554   -6.9667 C.ar        1 NHV      -0.0444
     22 C20        29.4888   47.7709   -1.1123 C.3         1 NHV       0.1578
     23 H1         28.4894   45.6380   -6.2736 H           1 NHV       0.2095
     24 H2         27.2549   46.6703   -4.8504 H           1 NHV       0.0589
     25 H3         28.4359   47.9832   -4.7180 H           1 NHV       0.0589
     26 H4         29.2651   45.1534   -3.9771 H           1 NHV       0.0699
     27 H5         27.0935   45.7322   -2.6791 H           1 NHV       0.0654
     28 H6         27.8069   44.3831   -1.3500 H           1 NHV       0.2100
     29 H7         27.4850   47.1126   -0.5977 H           1 NHV       0.0675
     30 H8         26.4246   48.0722   -2.1974 H           1 NHV       0.2103
     31 H9         29.2316   49.6805   -1.4311 H           1 NHV       0.2138
     32 H10        31.4684   46.4899   -4.9746 H           1 NHV       0.0663
     33 H11        34.2347   47.5845   -4.0527 H           1 NHV       0.0617
     34 H12        33.8313   49.1869   -3.4454 H           1 NHV       0.0617
     35 H13        33.0334   49.8246   -5.3852 H           1 NHV       0.1774
     36 H14        34.0874   46.5981   -6.5493 H           1 NHV       0.0515
     37 H15        32.8780   45.3040   -8.1753 H           1 NHV       0.0583
     38 H16        30.7530   46.0959   -9.0418 H           1 NHV       0.0505
     39 H17        29.8508   48.2227   -8.2744 H           1 NHV       0.0583
     40 H18        31.0470   49.5305   -6.6441 H           1 NHV       0.0515
     41 H19        29.8454   47.1559   -0.2801 H           1 NHV       0.0858
@<TRIPOS>BOND
     1     1     2   1
     2     2     3   1
     3     3     4   1
     4     3     9   1
     5     4     5   1
     6     4     6   1
     7     6     7   1
     8     6    22   1
     9    22     8   1
    10     9    10   1
    11     9    13   1
    12    10    11   2
    13    11    12   1
    14    11    14   1
    15    12    13   2
    16    13    22   1
    17    14    15   1
    18    15    16   1
    19    16    17  ar
    20    16    21  ar
    21    17    18  ar
    22    18    19  ar
    23    19    20  ar
    24    20    21  ar
    25     1    23   1
    26     2    24   1
    27     2    25   1
    28     3    26   1
    29     4    27   1
    30     5    28   1
    31     6    29   1
    32     7    30   1
    33     8    31   1
    34    10    32   1
    35    14    33   1
    36    14    34   1
    37    15    35   1
    38    17    36   1
    39    18    37   1
    40    19    38   1
    41    20    39   1
    42    21    40   1
    43    22    41   1
@<TRIPOS>SUBSTRUCTURE
     1  NHV      2

