@<TRIPOS>MOLECULE
2vot_ligand_003
    41    43
SMALL
GAST_HUCK
****
This file was generated by PARSER (from files_GN.cpp)

@<TRIPOS>ATOM
      1 O6B        31.8854   49.6256   -2.5396 O.3         1 NHV      -0.3919
      2 C6B        31.6611   48.2809   -2.9830 C.3         1 NHV       0.0768
      3 C5B        30.1482   47.8924   -3.0269 C.3         1 NHV       0.1168
      4 C4B        29.4963   47.7984   -1.6010 C.3         1 NHV       0.1178
      5 O4B        29.4700   49.0526   -0.9253 O.3         1 NHV      -0.3858
      6 C3B        28.0462   47.2290   -1.6724 C.3         1 NHV       0.1252
      7 O3B        27.4916   47.1628   -0.3572 O.3         1 NHV      -0.3839
      8 O2B        28.5193   44.8323   -1.4310 O.3         1 NHV      -0.3700
      9 N1B        29.9035   46.6947   -3.8081 N.pl3       1 NHV      -0.2494
     10 C8B        30.3753   46.3694   -5.0150 C.2         1 NHV       0.0253
     11 C7B        29.6217   45.3147   -5.5138 C.2         1 NHV       0.0014
     12 N2B        28.7136   45.0038   -4.5768 N.2         1 NHV      -0.3297
     13 C1B        28.8992   45.8192   -3.5287 C.2         1 NHV       0.1428
     14 C7         29.6183   44.7880   -6.8904 C.3         1 NHV       0.0480
     15 N1         30.7562   43.9597   -7.1619 N.pl3       1 NHV      -0.3158
     16 C1         31.5853   44.1378   -8.2280 C.ar        1 NHV       0.0390
     17 C6         32.3601   45.2874   -8.4641 C.ar        1 NHV      -0.0444
     18 C5         33.1522   45.4078   -9.6053 C.ar        1 NHV      -0.0737
     19 C4         33.1534   44.3776  -10.5770 C.ar        1 NHV      -0.0751
     20 C3         32.3661   43.2315  -10.3767 C.ar        1 NHV      -0.0737
     21 C2         31.5995   43.1001   -9.2186 C.ar        1 NHV      -0.0444
     22 C20        28.0356   45.8275   -2.3365 C.3         1 NHV       0.1578
     23 H1         31.0464   50.1221   -2.7177 H           1 NHV       0.2095
     24 H2         32.2173   47.6145   -2.3299 H           1 NHV       0.0589
     25 H3         32.0827   48.1970   -3.9859 H           1 NHV       0.0589
     26 H4         29.6256   48.7002   -3.5618 H           1 NHV       0.0699
     27 H5         30.0897   47.1235   -0.9842 H           1 NHV       0.0654
     28 H6         29.1856   49.7198   -1.5950 H           1 NHV       0.2100
     29 H7         27.4158   47.9008   -2.2670 H           1 NHV       0.0675
     30 H8         26.5363   46.9677   -0.4651 H           1 NHV       0.2103
     31 H9         27.7413   44.2631   -1.2266 H           1 NHV       0.2138
     32 H10        31.1208   46.8731   -5.5264 H           1 NHV       0.0663
     33 H11        29.4990   45.6166   -7.5909 H           1 NHV       0.0617
     34 H12        28.7388   44.1341   -7.0059 H           1 NHV       0.0617
     35 H13        30.7142   43.0707   -6.8021 H           1 NHV       0.1774
     36 H14        32.3737   46.0451   -7.7583 H           1 NHV       0.0515
     37 H15        33.6906   46.2550   -9.7747 H           1 NHV       0.0583
     38 H16        33.7187   44.4633  -11.4211 H           1 NHV       0.0505
     39 H17        32.3600   42.4779  -11.0815 H           1 NHV       0.0583
     40 H18        31.0540   42.2454   -9.0791 H           1 NHV       0.0515
     41 H19        27.0133   45.5585   -2.6265 H           1 NHV       0.0858
@<TRIPOS>BOND
     1     1     2   1
     2     2     3   1
     3     3     4   1
     4     3     9   1
     5     4     5   1
     6     4     6   1
     7     6     7   1
     8     6    22   1
     9    22     8   1
    10     9    10   1
    11     9    13   1
    12    10    11   2
    13    11    12   1
    14    11    14   1
    15    12    13   2
    16    13    22   1
    17    14    15   1
    18    15    16   1
    19    16    17  ar
    20    16    21  ar
    21    17    18  ar
    22    18    19  ar
    23    19    20  ar
    24    20    21  ar
    25     1    23   1
    26     2    24   1
    27     2    25   1
    28     3    26   1
    29     4    27   1
    30     5    28   1
    31     6    29   1
    32     7    30   1
    33     8    31   1
    34    10    32   1
    35    14    33   1
    36    14    34   1
    37    15    35   1
    38    17    36   1
    39    18    37   1
    40    19    38   1
    41    20    39   1
    42    21    40   1
    43    22    41   1
@<TRIPOS>SUBSTRUCTURE
     1  NHV      2

