@<TRIPOS>MOLECULE
2vot_ligand_019
    41    43
SMALL
GAST_HUCK
****
This file was generated by PARSER (from files_GN.cpp)

@<TRIPOS>ATOM
      1 O6B        30.5619   51.7332   -6.2249 O.3         1 NHV      -0.3919
      2 C6B        31.9431   51.4571   -6.0046 C.3         1 NHV       0.0768
      3 C5B        32.1466   50.4657   -4.8218 C.3         1 NHV       0.1168
      4 C4B        33.6616   50.2536   -4.4720 C.3         1 NHV       0.1178
      5 O4B        33.7599   49.8470   -3.1037 O.3         1 NHV      -0.3858
      6 C3B        34.3481   49.1741   -5.3707 C.3         1 NHV       0.1252
      7 O3B        34.4746   49.6522   -6.7101 O.3         1 NHV      -0.3839
      8 O2B        33.9268   46.9870   -6.4420 O.3         1 NHV      -0.3700
      9 N1B        31.4906   49.1976   -5.0556 N.pl3       1 NHV      -0.2494
     10 C8B        30.1751   48.9217   -4.9551 C.2         1 NHV       0.0253
     11 C7B        30.0098   47.5510   -5.1089 C.2         1 NHV       0.0014
     12 N2B        31.2249   47.0143   -5.2907 N.2         1 NHV      -0.3297
     13 C1B        32.1169   48.0182   -5.2800 C.2         1 NHV       0.1428
     14 C7         28.7935   46.7530   -4.8789 C.3         1 NHV       0.0480
     15 N1         29.0753   45.9114   -3.7550 N.pl3       1 NHV      -0.3158
     16 C1         28.7046   46.1806   -2.4725 C.ar        1 NHV       0.0390
     17 C6         29.7445   46.4125   -1.5393 C.ar        1 NHV      -0.0444
     18 C5         29.4539   46.7858   -0.2167 C.ar        1 NHV      -0.0737
     19 C4         28.1102   46.8578    0.2228 C.ar        1 NHV      -0.0751
     20 C3         27.0659   46.5670   -0.6832 C.ar        1 NHV      -0.0737
     21 C2         27.3587   46.2595   -2.0280 C.ar        1 NHV      -0.0444
     22 C20        33.5816   47.8215   -5.3347 C.3         1 NHV       0.1578
     23 H1         30.2071   50.9021   -6.5878 H           1 NHV       0.2095
     24 H2         32.4319   52.4080   -5.7810 H           1 NHV       0.0589
     25 H3         32.3727   51.0584   -6.9231 H           1 NHV       0.0589
     26 H4         31.6776   50.9319   -3.9492 H           1 NHV       0.0699
     27 H5         34.2060   51.1989   -4.5670 H           1 NHV       0.0654
     28 H6         34.7093   49.6721   -2.9529 H           1 NHV       0.2100
     29 H7         35.3598   49.0010   -4.9986 H           1 NHV       0.0675
     30 H8         35.0968   50.4073   -6.6535 H           1 NHV       0.2103
     31 H9         33.6979   47.5088   -7.2432 H           1 NHV       0.2138
     32 H10        29.4332   49.5895   -4.7296 H           1 NHV       0.0663
     33 H11        28.6037   46.1202   -5.7531 H           1 NHV       0.0617
     34 H12        27.9306   47.4052   -4.7293 H           1 NHV       0.0617
     35 H13        29.8479   45.3494   -3.8491 H           1 NHV       0.1774
     36 H14        30.7281   46.3890   -1.8387 H           1 NHV       0.0515
     37 H15        30.2117   47.0111    0.4376 H           1 NHV       0.0583
     38 H16        27.8976   47.1126    1.1860 H           1 NHV       0.0505
     39 H17        26.0882   46.6187   -0.3776 H           1 NHV       0.0583
     40 H18        26.5906   46.0476   -2.6693 H           1 NHV       0.0515
     41 H19        33.8681   47.2835   -4.4236 H           1 NHV       0.0858
@<TRIPOS>BOND
     1     1     2   1
     2     2     3   1
     3     3     4   1
     4     3     9   1
     5     4     5   1
     6     4     6   1
     7     6     7   1
     8     6    22   1
     9    22     8   1
    10     9    10   1
    11     9    13   1
    12    10    11   2
    13    11    12   1
    14    11    14   1
    15    12    13   2
    16    13    22   1
    17    14    15   1
    18    15    16   1
    19    16    17  ar
    20    16    21  ar
    21    17    18  ar
    22    18    19  ar
    23    19    20  ar
    24    20    21  ar
    25     1    23   1
    26     2    24   1
    27     2    25   1
    28     3    26   1
    29     4    27   1
    30     5    28   1
    31     6    29   1
    32     7    30   1
    33     8    31   1
    34    10    32   1
    35    14    33   1
    36    14    34   1
    37    15    35   1
    38    17    36   1
    39    18    37   1
    40    19    38   1
    41    20    39   1
    42    21    40   1
    43    22    41   1
@<TRIPOS>SUBSTRUCTURE
     1  NHV      2

