@<TRIPOS>MOLECULE
2vot_ligand_008
    41    43
SMALL
GAST_HUCK
****
This file was generated by PARSER (from files_GN.cpp)

@<TRIPOS>ATOM
      1 O6B        32.3723   48.4702   -1.8267 O.3         1 NHV      -0.3919
      2 C6B        31.8047   47.7638   -2.9205 C.3         1 NHV       0.0768
      3 C5B        30.2469   47.8169   -2.9391 C.3         1 NHV       0.1168
      4 C4B        29.5980   47.6962   -1.5098 C.3         1 NHV       0.1178
      5 O4B        29.7261   48.9229   -0.7842 O.3         1 NHV      -0.3858
      6 C3B        28.0914   47.3098   -1.5910 C.3         1 NHV       0.1252
      7 O3B        27.5062   47.2020   -0.2933 O.3         1 NHV      -0.3839
      8 O2B        28.4750   44.8991   -1.6383 O.3         1 NHV      -0.3700
      9 N1B        29.7132   46.8464   -3.8760 N.pl3       1 NHV      -0.2494
     10 C8B        30.0791   46.6549   -5.1544 C.2         1 NHV       0.0253
     11 C7B        29.1398   45.8292   -5.7567 C.2         1 NHV       0.0014
     12 N2B        28.2591   45.4666   -4.8099 N.2         1 NHV      -0.3297
     13 C1B        28.6170   46.0849   -3.6722 C.2         1 NHV       0.1428
     14 C7         29.1355   45.3528   -7.1526 C.3         1 NHV       0.0480
     15 N1         28.8597   46.2739   -8.2256 N.pl3       1 NHV      -0.3158
     16 C1         29.6692   47.2995   -8.5758 C.ar        1 NHV       0.0390
     17 C6         30.2402   47.2311   -9.8702 C.ar        1 NHV      -0.0444
     18 C5         31.1745   48.1868  -10.2925 C.ar        1 NHV      -0.0737
     19 C4         31.5174   49.2621   -9.4478 C.ar        1 NHV      -0.0751
     20 C3         30.9001   49.3903   -8.1907 C.ar        1 NHV      -0.0737
     21 C2         29.9695   48.4205   -7.7650 C.ar        1 NHV      -0.0444
     22 C20        27.9161   45.9880   -2.3783 C.3         1 NHV       0.1578
     23 H1         32.1833   47.9194   -1.0384 H           1 NHV       0.2095
     24 H2         32.1542   46.7293   -2.8844 H           1 NHV       0.0589
     25 H3         32.1891   48.2249   -3.8327 H           1 NHV       0.0589
     26 H4         29.9635   48.8027   -3.3359 H           1 NHV       0.0699
     27 H5         30.1211   46.9236   -0.9372 H           1 NHV       0.0654
     28 H6         29.3895   49.6308   -1.3775 H           1 NHV       0.2100
     29 H7         27.5578   48.1113   -2.1105 H           1 NHV       0.0675
     30 H8         27.8765   46.3886    0.1136 H           1 NHV       0.2103
     31 H9         27.7072   44.3534   -1.3762 H           1 NHV       0.2138
     32 H10        30.8978   47.0657   -5.6106 H           1 NHV       0.0663
     33 H11        28.3763   44.5746   -7.2347 H           1 NHV       0.0617
     34 H12        30.1003   44.8778   -7.3577 H           1 NHV       0.0617
     35 H13        28.4840   45.8078   -8.9942 H           1 NHV       0.1774
     36 H14        30.0398   46.4315  -10.4779 H           1 NHV       0.0515
     37 H15        31.6120   48.0995  -11.2101 H           1 NHV       0.0583
     38 H16        32.2094   49.9500   -9.7494 H           1 NHV       0.0505
     39 H17        31.1203   50.1864   -7.5855 H           1 NHV       0.0583
     40 H18        29.4924   48.5664   -6.8775 H           1 NHV       0.0515
     41 H19        26.8546   45.8129   -2.5566 H           1 NHV       0.0858
@<TRIPOS>BOND
     1     1     2   1
     2     2     3   1
     3     3     4   1
     4     3     9   1
     5     4     5   1
     6     4     6   1
     7     6     7   1
     8     6    22   1
     9    22     8   1
    10     9    10   1
    11     9    13   1
    12    10    11   2
    13    11    12   1
    14    11    14   1
    15    12    13   2
    16    13    22   1
    17    14    15   1
    18    15    16   1
    19    16    17  ar
    20    16    21  ar
    21    17    18  ar
    22    18    19  ar
    23    19    20  ar
    24    20    21  ar
    25     1    23   1
    26     2    24   1
    27     2    25   1
    28     3    26   1
    29     4    27   1
    30     5    28   1
    31     6    29   1
    32     7    30   1
    33     8    31   1
    34    10    32   1
    35    14    33   1
    36    14    34   1
    37    15    35   1
    38    17    36   1
    39    18    37   1
    40    19    38   1
    41    20    39   1
    42    21    40   1
    43    22    41   1
@<TRIPOS>SUBSTRUCTURE
     1  NHV      2

