@<TRIPOS>MOLECULE
2vot_ligand_016
    41    43
SMALL
GAST_HUCK
****
This file was generated by PARSER (from files_GN.cpp)

@<TRIPOS>ATOM
      1 O6B        31.2823   50.1437   -6.7959 O.3         1 NHV      -0.3919
      2 C6B        31.2113   48.7293   -6.6460 C.3         1 NHV       0.0768
      3 C5B        31.1337   48.3154   -5.1449 C.3         1 NHV       0.1168
      4 C4B        31.7259   46.8863   -4.8675 C.3         1 NHV       0.1178
      5 O4B        32.1461   46.7974   -3.5019 O.3         1 NHV      -0.3858
      6 C3B        30.7055   45.7474   -5.1559 C.3         1 NHV       0.1252
      7 O3B        30.4644   45.6534   -6.5601 O.3         1 NHV      -0.3839
      8 O2B        28.3379   45.1522   -4.9306 O.3         1 NHV      -0.3700
      9 N1B        29.7727   48.4230   -4.6801 N.pl3       1 NHV      -0.2494
     10 C8B        29.0852   49.5441   -4.3923 C.2         1 NHV       0.0253
     11 C7B        27.8179   49.1650   -3.9511 C.2         1 NHV       0.0014
     12 N2B        27.7771   47.8264   -3.9580 N.2         1 NHV      -0.3297
     13 C1B        28.9561   47.3832   -4.4091 C.2         1 NHV       0.1428
     14 C7         26.7699   50.0035   -3.3224 C.3         1 NHV       0.0480
     15 N1         26.8738   49.9014   -1.8937 N.pl3       1 NHV      -0.3158
     16 C1         26.8133   48.7538   -1.1738 C.ar        1 NHV       0.0390
     17 C6         26.0357   47.6225   -1.5315 C.ar        1 NHV      -0.0444
     18 C5         26.2284   46.3841   -0.8896 C.ar        1 NHV      -0.0737
     19 C4         27.1846   46.2617    0.1298 C.ar        1 NHV      -0.0751
     20 C3         27.9055   47.3963    0.5478 C.ar        1 NHV      -0.0737
     21 C2         27.6910   48.6409   -0.0748 C.ar        1 NHV      -0.0444
     22 C20        29.3707   45.9734   -4.3916 C.3         1 NHV       0.1578
     23 H1         32.1663   50.3959   -6.4364 H           1 NHV       0.2095
     24 H2         32.0977   48.3016   -7.1180 H           1 NHV       0.0589
     25 H3         30.3325   48.3808   -7.1873 H           1 NHV       0.0589
     26 H4         31.7513   49.0264   -4.5802 H           1 NHV       0.0699
     27 H5         32.6230   46.7210   -5.4673 H           1 NHV       0.0654
     28 H6         31.3599   47.0356   -2.9673 H           1 NHV       0.2100
     29 H7         31.1291   44.7920   -4.8438 H           1 NHV       0.0675
     30 H8         31.2969   45.2971   -6.9446 H           1 NHV       0.2103
     31 H9         28.4088   44.3174   -4.4153 H           1 NHV       0.2138
     32 H10        29.4506   50.4956   -4.4195 H           1 NHV       0.0663
     33 H11        25.7765   49.7103   -3.6719 H           1 NHV       0.0617
     34 H12        26.9346   51.0438   -3.6068 H           1 NHV       0.0617
     35 H13        27.2863   50.6606   -1.4614 H           1 NHV       0.1774
     36 H14        25.3479   47.6864   -2.2829 H           1 NHV       0.0515
     37 H15        25.6807   45.5744   -1.1805 H           1 NHV       0.0583
     38 H16        27.3587   45.3546    0.5649 H           1 NHV       0.0505
     39 H17        28.6100   47.3106    1.2851 H           1 NHV       0.0583
     40 H18        28.2511   49.4441    0.2181 H           1 NHV       0.0515
     41 H19        29.4964   45.6902   -3.3408 H           1 NHV       0.0858
@<TRIPOS>BOND
     1     1     2   1
     2     2     3   1
     3     3     4   1
     4     3     9   1
     5     4     5   1
     6     4     6   1
     7     6     7   1
     8     6    22   1
     9    22     8   1
    10     9    10   1
    11     9    13   1
    12    10    11   2
    13    11    12   1
    14    11    14   1
    15    12    13   2
    16    13    22   1
    17    14    15   1
    18    15    16   1
    19    16    17  ar
    20    16    21  ar
    21    17    18  ar
    22    18    19  ar
    23    19    20  ar
    24    20    21  ar
    25     1    23   1
    26     2    24   1
    27     2    25   1
    28     3    26   1
    29     4    27   1
    30     5    28   1
    31     6    29   1
    32     7    30   1
    33     8    31   1
    34    10    32   1
    35    14    33   1
    36    14    34   1
    37    15    35   1
    38    17    36   1
    39    18    37   1
    40    19    38   1
    41    20    39   1
    42    21    40   1
    43    22    41   1
@<TRIPOS>SUBSTRUCTURE
     1  NHV      2

