@<TRIPOS>MOLECULE
2vot_ligand_024
    41    43
SMALL
GAST_HUCK
****
This file was generated by PARSER (from files_GN.cpp)

@<TRIPOS>ATOM
      1 O6B        33.8472   48.9283   -6.0438 O.3         1 NHV      -0.3919
      2 C6B        32.5201   48.6569   -5.5880 C.3         1 NHV       0.0768
      3 C5B        32.1767   47.1546   -5.8321 C.3         1 NHV       0.1168
      4 C4B        31.9980   46.8820   -7.3707 C.3         1 NHV       0.1178
      5 O4B        33.2457   46.9008   -8.0583 O.3         1 NHV      -0.3858
      6 C3B        31.2354   45.5566   -7.6621 C.3         1 NHV       0.1252
      7 O3B        30.9713   45.3797   -9.0566 O.3         1 NHV      -0.3839
      8 O2B        28.9553   46.4239   -7.6031 O.3         1 NHV      -0.3700
      9 N1B        31.0404   46.6871   -5.0490 N.pl3       1 NHV      -0.2494
     10 C8B        30.8486   46.7661   -3.7095 C.2         1 NHV       0.0253
     11 C7B        29.6661   46.0935   -3.3874 C.2         1 NHV       0.0014
     12 N2B        29.1692   45.6063   -4.5370 N.2         1 NHV      -0.3297
     13 C1B        30.0108   45.9600   -5.5260 C.2         1 NHV       0.1428
     14 C7         29.0202   45.9491   -2.0570 C.3         1 NHV       0.0480
     15 N1         27.6130   46.1874   -2.1704 N.pl3       1 NHV      -0.3158
     16 C1         27.1619   47.4470   -2.1922 C.ar        1 NHV       0.0390
     17 C6         27.1372   48.2497   -1.0165 C.ar        1 NHV      -0.0444
     18 C5         26.4820   49.4897   -1.0446 C.ar        1 NHV      -0.0737
     19 C4         25.9689   49.9755   -2.2630 C.ar        1 NHV      -0.0751
     20 C3         26.0732   49.2136   -3.4489 C.ar        1 NHV      -0.0737
     21 C2         26.6447   47.9342   -3.3999 C.ar        1 NHV      -0.0444
     22 C20        29.8643   45.5514   -6.9348 C.3         1 NHV       0.1578
     23 H1         34.4355   48.4106   -5.4564 H           1 NHV       0.2095
     24 H2         31.8210   49.3107   -6.1129 H           1 NHV       0.0589
     25 H3         32.4904   48.8920   -4.5212 H           1 NHV       0.0589
     26 H4         33.0282   46.5734   -5.4778 H           1 NHV       0.0699
     27 H5         31.3965   47.6893   -7.8046 H           1 NHV       0.0654
     28 H6         33.7797   46.1611   -7.6743 H           1 NHV       0.2100
     29 H7         31.8391   44.7070   -7.3204 H           1 NHV       0.0675
     30 H8         31.8164   45.5238   -9.5225 H           1 NHV       0.2103
     31 H9         28.0806   46.2592   -7.1969 H           1 NHV       0.2138
     32 H10        31.4749   47.2166   -3.0402 H           1 NHV       0.0663
     33 H11        29.5049   46.6245   -1.3466 H           1 NHV       0.0617
     34 H12        29.1176   44.9397   -1.6769 H           1 NHV       0.0617
     35 H13        26.9941   45.4420   -2.4479 H           1 NHV       0.1774
     36 H14        27.4796   47.8786   -0.1276 H           1 NHV       0.0515
     37 H15        26.3393   50.0043   -0.1797 H           1 NHV       0.0583
     38 H16        25.4716   50.8643   -2.2863 H           1 NHV       0.0505
     39 H17        25.6831   49.5618   -4.3364 H           1 NHV       0.0583
     40 H18        26.7058   47.3711   -4.2525 H           1 NHV       0.0515
     41 H19        29.4580   44.5399   -6.9641 H           1 NHV       0.0858
@<TRIPOS>BOND
     1     1     2   1
     2     2     3   1
     3     3     4   1
     4     3     9   1
     5     4     5   1
     6     4     6   1
     7     6     7   1
     8     6    22   1
     9    22     8   1
    10     9    10   1
    11     9    13   1
    12    10    11   2
    13    11    12   1
    14    11    14   1
    15    12    13   2
    16    13    22   1
    17    14    15   1
    18    15    16   1
    19    16    17  ar
    20    16    21  ar
    21    17    18  ar
    22    18    19  ar
    23    19    20  ar
    24    20    21  ar
    25     1    23   1
    26     2    24   1
    27     2    25   1
    28     3    26   1
    29     4    27   1
    30     5    28   1
    31     6    29   1
    32     7    30   1
    33     8    31   1
    34    10    32   1
    35    14    33   1
    36    14    34   1
    37    15    35   1
    38    17    36   1
    39    18    37   1
    40    19    38   1
    41    20    39   1
    42    21    40   1
    43    22    41   1
@<TRIPOS>SUBSTRUCTURE
     1  NHV      2

