@<TRIPOS>MOLECULE
2vot_ligand_001
    41    43
SMALL
GAST_HUCK
****
This file was generated by PARSER (from files_GN.cpp)

@<TRIPOS>ATOM
      1 O6B        26.5669   49.8325   -0.8985 O.3         1 NHV      -0.3919
      2 C6B        26.2762   49.1758   -2.1324 C.3         1 NHV       0.0768
      3 C5B        27.1532   47.9121   -2.3574 C.3         1 NHV       0.1168
      4 C4B        27.2553   47.0634   -1.0448 C.3         1 NHV       0.1178
      5 O4B        26.0344   46.3551   -0.8154 O.3         1 NHV      -0.3858
      6 C3B        28.4563   46.0718   -1.0887 C.3         1 NHV       0.1252
      7 O3B        28.5434   45.3354    0.1297 O.3         1 NHV      -0.3839
      8 O2B        30.2327   47.5347   -0.1973 O.3         1 NHV      -0.3700
      9 N1B        28.4452   48.2507   -2.8998 N.pl3       1 NHV      -0.2494
     10 C8B        28.7060   49.0225   -3.9707 C.2         1 NHV       0.0253
     11 C7B        30.0878   49.0885   -4.1390 C.2         1 NHV       0.0014
     12 N2B        30.6420   48.3059   -3.1987 N.2         1 NHV      -0.3297
     13 C1B        29.6359   47.7833   -2.4623 C.2         1 NHV       0.1428
     14 C7         30.8362   49.8577   -5.1452 C.3         1 NHV       0.0480
     15 N1         31.2054   51.1165   -4.5743 N.pl3       1 NHV      -0.3158
     16 C1         32.4279   51.7063   -4.6506 C.ar        1 NHV       0.0390
     17 C6         33.1290   51.8947   -3.4281 C.ar        1 NHV      -0.0444
     18 C5         34.4271   52.4327   -3.4172 C.ar        1 NHV      -0.0737
     19 C4         35.0570   52.7826   -4.6267 C.ar        1 NHV      -0.0751
     20 C3         34.3608   52.6339   -5.8443 C.ar        1 NHV      -0.0737
     21 C2         33.0674   52.0678   -5.8567 C.ar        1 NHV      -0.0444
     22 C20        29.7902   46.8202   -1.3499 C.3         1 NHV       0.1578
     23 H1         27.3630   50.3892   -1.0559 H           1 NHV       0.2095
     24 H2         26.4158   49.8992   -2.9454 H           1 NHV       0.0589
     25 H3         25.2189   48.8937   -2.1323 H           1 NHV       0.0589
     26 H4         26.6512   47.3032   -3.1099 H           1 NHV       0.0699
     27 H5         27.4001   47.7231   -0.1828 H           1 NHV       0.0654
     28 H6         26.1116   45.5202   -1.3251 H           1 NHV       0.2100
     29 H7         28.2949   45.3513   -1.8984 H           1 NHV       0.0675
     30 H8         27.8608   44.6196    0.0506 H           1 NHV       0.2103
     31 H9         31.1713   47.2670   -0.0795 H           1 NHV       0.2138
     32 H10        28.0156   49.5009   -4.5466 H           1 NHV       0.0663
     33 H11        30.2357   50.0136   -6.0411 H           1 NHV       0.0617
     34 H12        31.7167   49.2705   -5.4133 H           1 NHV       0.0617
     35 H13        30.5471   51.5221   -3.9948 H           1 NHV       0.1774
     36 H14        32.6857   51.6586   -2.5343 H           1 NHV       0.0515
     37 H15        34.9353   52.5401   -2.5303 H           1 NHV       0.0583
     38 H16        36.0135   53.1564   -4.6266 H           1 NHV       0.0505
     39 H17        34.8037   52.9235   -6.7195 H           1 NHV       0.0583
     40 H18        32.5943   51.9563   -6.7535 H           1 NHV       0.0515
     41 H19        30.5602   46.0952   -1.6218 H           1 NHV       0.0858
@<TRIPOS>BOND
     1     1     2   1
     2     2     3   1
     3     3     4   1
     4     3     9   1
     5     4     5   1
     6     4     6   1
     7     6     7   1
     8     6    22   1
     9    22     8   1
    10     9    10   1
    11     9    13   1
    12    10    11   2
    13    11    12   1
    14    11    14   1
    15    12    13   2
    16    13    22   1
    17    14    15   1
    18    15    16   1
    19    16    17  ar
    20    16    21  ar
    21    17    18  ar
    22    18    19  ar
    23    19    20  ar
    24    20    21  ar
    25     1    23   1
    26     2    24   1
    27     2    25   1
    28     3    26   1
    29     4    27   1
    30     5    28   1
    31     6    29   1
    32     7    30   1
    33     8    31   1
    34    10    32   1
    35    14    33   1
    36    14    34   1
    37    15    35   1
    38    17    36   1
    39    18    37   1
    40    19    38   1
    41    20    39   1
    42    21    40   1
    43    22    41   1
@<TRIPOS>SUBSTRUCTURE
     1  NHV      2

