@<TRIPOS>MOLECULE
2vot_ligand_022
    41    43
SMALL
GAST_HUCK
****
This file was generated by PARSER (from files_GN.cpp)

@<TRIPOS>ATOM
      1 O6B        26.8995   49.8126   -2.2181 O.3         1 NHV      -0.3919
      2 C6B        26.7922   49.0942   -3.4423 C.3         1 NHV       0.0768
      3 C5B        27.8333   47.9407   -3.5952 C.3         1 NHV       0.1168
      4 C4B        27.4959   46.6623   -2.7479 C.3         1 NHV       0.1178
      5 O4B        27.9625   45.5061   -3.4513 O.3         1 NHV      -0.3858
      6 C3B        28.1349   46.6663   -1.3249 C.3         1 NHV       0.1252
      7 O3B        27.4333   47.5650   -0.4711 O.3         1 NHV      -0.3839
      8 O2B        30.0938   47.4473   -0.0756 O.3         1 NHV      -0.3700
      9 N1B        29.1750   48.4075   -3.3573 N.pl3       1 NHV      -0.2494
     10 C8B        29.8385   49.3405   -4.0591 C.2         1 NHV       0.0253
     11 C7B        31.0930   49.5091   -3.4823 C.2         1 NHV       0.0014
     12 N2B        31.1718   48.6679   -2.4385 N.2         1 NHV      -0.3297
     13 C1B        30.0003   48.0026   -2.3656 C.2         1 NHV       0.1428
     14 C7         32.0767   50.5683   -3.7778 C.3         1 NHV       0.0480
     15 N1         33.3194   50.0460   -4.2889 N.pl3       1 NHV      -0.3158
     16 C1         34.0457   50.4871   -5.3617 C.ar        1 NHV       0.0390
     17 C6         33.5803   51.3545   -6.3776 C.ar        1 NHV      -0.0444
     18 C5         34.4324   51.7886   -7.4096 C.ar        1 NHV      -0.0737
     19 C4         35.7761   51.3726   -7.4395 C.ar        1 NHV      -0.0751
     20 C3         36.2470   50.4810   -6.4624 C.ar        1 NHV      -0.0737
     21 C2         35.3886   50.0215   -5.4407 C.ar        1 NHV      -0.0444
     22 C20        29.6585   46.9800   -1.3527 C.3         1 NHV       0.1578
     23 H1         27.7766   50.2519   -2.2446 H           1 NHV       0.2095
     24 H2         26.9216   49.8123   -4.2547 H           1 NHV       0.0589
     25 H3         25.7771   48.6999   -3.5194 H           1 NHV       0.0589
     26 H4         27.7767   47.6388   -4.6442 H           1 NHV       0.0699
     27 H5         26.4082   46.5413   -2.6564 H           1 NHV       0.0654
     28 H6         27.5923   44.7441   -2.9647 H           1 NHV       0.2100
     29 H7         28.0013   45.6799   -0.8793 H           1 NHV       0.0675
     30 H8         27.6189   48.4641   -0.8296 H           1 NHV       0.2103
     31 H9         30.8833   46.8932    0.1501 H           1 NHV       0.2138
     32 H10        29.4730   49.8680   -4.8497 H           1 NHV       0.0663
     33 H11        32.2977   51.0767   -2.8381 H           1 NHV       0.0617
     34 H12        31.6195   51.2891   -4.4553 H           1 NHV       0.0617
     35 H13        33.7545   49.3620   -3.7256 H           1 NHV       0.1774
     36 H14        32.6205   51.6924   -6.3938 H           1 NHV       0.0515
     37 H15        34.0891   52.4464   -8.1115 H           1 NHV       0.0583
     38 H16        36.3980   51.6996   -8.1807 H           1 NHV       0.0505
     39 H17        37.2263   50.1646   -6.4860 H           1 NHV       0.0583
     40 H18        35.7733   49.4069   -4.7157 H           1 NHV       0.0515
     41 H19        30.2114   46.0735   -1.6028 H           1 NHV       0.0858
@<TRIPOS>BOND
     1     1     2   1
     2     2     3   1
     3     3     4   1
     4     3     9   1
     5     4     5   1
     6     4     6   1
     7     6     7   1
     8     6    22   1
     9    22     8   1
    10     9    10   1
    11     9    13   1
    12    10    11   2
    13    11    12   1
    14    11    14   1
    15    12    13   2
    16    13    22   1
    17    14    15   1
    18    15    16   1
    19    16    17  ar
    20    16    21  ar
    21    17    18  ar
    22    18    19  ar
    23    19    20  ar
    24    20    21  ar
    25     1    23   1
    26     2    24   1
    27     2    25   1
    28     3    26   1
    29     4    27   1
    30     5    28   1
    31     6    29   1
    32     7    30   1
    33     8    31   1
    34    10    32   1
    35    14    33   1
    36    14    34   1
    37    15    35   1
    38    17    36   1
    39    18    37   1
    40    19    38   1
    41    20    39   1
    42    21    40   1
    43    22    41   1
@<TRIPOS>SUBSTRUCTURE
     1  NHV      2

