@<TRIPOS>MOLECULE
2vot_ligand_006
    41    43
SMALL
GAST_HUCK
****
This file was generated by PARSER (from files_GN.cpp)

@<TRIPOS>ATOM
      1 O6B        28.6204   44.7913   -0.9106 O.3         1 NHV      -0.3919
      2 C6B        27.7528   45.7903   -1.4474 C.3         1 NHV       0.0768
      3 C5B        28.4516   47.1910   -1.4652 C.3         1 NHV       0.1168
      4 C4B        27.6594   48.2990   -0.6773 C.3         1 NHV       0.1178
      5 O4B        28.5872   49.2856   -0.2254 O.3         1 NHV      -0.3858
      6 C3B        26.5469   48.9540   -1.5585 C.3         1 NHV       0.1252
      7 O3B        25.5658   47.9746   -1.8991 O.3         1 NHV      -0.3839
      8 O2B        26.1314   49.9197   -3.7812 O.3         1 NHV      -0.3700
      9 N1B        28.7316   47.6236   -2.8102 N.pl3       1 NHV      -0.2494
     10 C8B        29.6070   47.0833   -3.6760 C.2         1 NHV       0.0253
     11 C7B        29.5641   47.8313   -4.8493 C.2         1 NHV       0.0014
     12 N2B        28.6484   48.7997   -4.6819 N.2         1 NHV      -0.3297
     13 C1B        28.1455   48.6632   -3.4461 C.2         1 NHV       0.1428
     14 C7         30.3652   47.6879   -6.0824 C.3         1 NHV       0.0480
     15 N1         30.7764   48.9910   -6.4982 N.pl3       1 NHV      -0.3158
     16 C1         31.6710   49.8125   -5.8925 C.ar        1 NHV       0.0390
     17 C6         32.7150   49.3808   -5.0378 C.ar        1 NHV      -0.0444
     18 C5         33.5650   50.3229   -4.4278 C.ar        1 NHV      -0.0737
     19 C4         33.3668   51.6991   -4.6319 C.ar        1 NHV      -0.0751
     20 C3         32.3233   52.1384   -5.4676 C.ar        1 NHV      -0.0737
     21 C2         31.4996   51.1972   -6.1094 C.ar        1 NHV      -0.0444
     22 C20        27.1507   49.5783   -2.8435 C.3         1 NHV       0.1578
     23 H1         28.0353   44.0198   -0.7343 H           1 NHV       0.2095
     24 H2         26.8442   45.7912   -0.8316 H           1 NHV       0.0589
     25 H3         27.4716   45.4709   -2.4527 H           1 NHV       0.0589
     26 H4         29.4184   47.0898   -0.9615 H           1 NHV       0.0699
     27 H5         27.2030   47.8797    0.2285 H           1 NHV       0.0654
     28 H6         28.1771   50.1657   -0.3921 H           1 NHV       0.2100
     29 H7         26.0526   49.7345   -0.9792 H           1 NHV       0.0675
     30 H8         24.8971   48.4607   -2.4200 H           1 NHV       0.2103
     31 H9         26.5698   50.4925   -4.4342 H           1 NHV       0.2138
     32 H10        30.2107   46.2743   -3.5014 H           1 NHV       0.0663
     33 H11        29.7187   47.2789   -6.8561 H           1 NHV       0.0617
     34 H12        31.2019   47.0118   -5.9331 H           1 NHV       0.0617
     35 H13        30.1636   49.4280   -7.1073 H           1 NHV       0.1774
     36 H14        32.8814   48.3907   -4.8749 H           1 NHV       0.0515
     37 H15        34.3318   50.0059   -3.8221 H           1 NHV       0.0583
     38 H16        33.9725   52.3802   -4.1656 H           1 NHV       0.0505
     39 H17        32.1532   53.1356   -5.5948 H           1 NHV       0.0583
     40 H18        30.7281   51.5413   -6.6995 H           1 NHV       0.0515
     41 H19        27.6653   50.5034   -2.5866 H           1 NHV       0.0858
@<TRIPOS>BOND
     1     1     2   1
     2     2     3   1
     3     3     4   1
     4     3     9   1
     5     4     5   1
     6     4     6   1
     7     6     7   1
     8     6    22   1
     9    22     8   1
    10     9    10   1
    11     9    13   1
    12    10    11   2
    13    11    12   1
    14    11    14   1
    15    12    13   2
    16    13    22   1
    17    14    15   1
    18    15    16   1
    19    16    17  ar
    20    16    21  ar
    21    17    18  ar
    22    18    19  ar
    23    19    20  ar
    24    20    21  ar
    25     1    23   1
    26     2    24   1
    27     2    25   1
    28     3    26   1
    29     4    27   1
    30     5    28   1
    31     6    29   1
    32     7    30   1
    33     8    31   1
    34    10    32   1
    35    14    33   1
    36    14    34   1
    37    15    35   1
    38    17    36   1
    39    18    37   1
    40    19    38   1
    41    20    39   1
    42    21    40   1
    43    22    41   1
@<TRIPOS>SUBSTRUCTURE
     1  NHV      2

