@<TRIPOS>MOLECULE
2vot_ligand_020
    41    43
SMALL
GAST_HUCK
****
This file was generated by PARSER (from files_GN.cpp)

@<TRIPOS>ATOM
      1 O6B        31.8628   47.0215   -2.5695 O.3         1 NHV      -0.3919
      2 C6B        30.9425   47.4486   -1.5705 C.3         1 NHV       0.0768
      3 C5B        29.6429   48.0568   -2.1642 C.3         1 NHV       0.1168
      4 C4B        28.4319   47.9655   -1.1644 C.3         1 NHV       0.1178
      5 O4B        27.5248   49.0467   -1.4134 O.3         1 NHV      -0.3858
      6 C3B        27.6545   46.6154   -1.2862 C.3         1 NHV       0.1252
      7 O3B        28.4287   45.5312   -0.7529 O.3         1 NHV      -0.3839
      8 O2B        26.9637   44.9374   -2.9542 O.3         1 NHV      -0.3700
      9 N1B        29.3058   47.5112   -3.4595 N.pl3       1 NHV      -0.2494
     10 C8B        29.9162   47.7809   -4.6348 C.2         1 NHV       0.0253
     11 C7B        29.1591   47.2089   -5.6483 C.2         1 NHV       0.0014
     12 N2B        28.1164   46.5914   -5.0718 N.2         1 NHV      -0.3297
     13 C1B        28.2255   46.7661   -3.7456 C.2         1 NHV       0.1428
     14 C7         29.3395   47.3766   -7.1043 C.3         1 NHV       0.0480
     15 N1         30.4871   46.7357   -7.6617 N.pl3       1 NHV      -0.3158
     16 C1         30.6542   45.4142   -7.9051 C.ar        1 NHV       0.0390
     17 C6         29.8907   44.3710   -7.3134 C.ar        1 NHV      -0.0444
     18 C5         30.1045   43.0261   -7.6555 C.ar        1 NHV      -0.0737
     19 C4         31.0480   42.6965   -8.6571 C.ar        1 NHV      -0.0751
     20 C3         31.8166   43.7112   -9.2460 C.ar        1 NHV      -0.0737
     21 C2         31.6333   45.0538   -8.8697 C.ar        1 NHV      -0.0444
     22 C20        27.2293   46.3216   -2.7591 C.3         1 NHV       0.1578
     23 H1         31.5314   46.1407   -2.8584 H           1 NHV       0.2095
     24 H2         31.4364   48.2003   -0.9475 H           1 NHV       0.0589
     25 H3         30.7151   46.5816   -0.9397 H           1 NHV       0.0589
     26 H4         29.8497   49.1184   -2.3067 H           1 NHV       0.0699
     27 H5         28.7767   48.0779   -0.1344 H           1 NHV       0.0654
     28 H6         28.0619   49.8658   -1.3636 H           1 NHV       0.2100
     29 H7         26.7470   46.6731   -0.6618 H           1 NHV       0.0675
     30 H8         27.8181   44.7537   -0.7726 H           1 NHV       0.2103
     31 H9         27.8345   44.4881   -2.9308 H           1 NHV       0.2138
     32 H10        30.7280   48.3856   -4.7645 H           1 NHV       0.0663
     33 H11        29.4328   48.4427   -7.3011 H           1 NHV       0.0617
     34 H12        28.4482   47.0293   -7.6295 H           1 NHV       0.0617
     35 H13        31.1534   47.3239   -8.0478 H           1 NHV       0.1774
     36 H14        29.1727   44.5816   -6.6177 H           1 NHV       0.0515
     37 H15        29.5601   42.2827   -7.2082 H           1 NHV       0.0583
     38 H16        31.1821   41.7247   -8.9354 H           1 NHV       0.0505
     39 H17        32.5100   43.4759   -9.9733 H           1 NHV       0.0583
     40 H18        32.2018   45.7791   -9.3167 H           1 NHV       0.0515
     41 H19        26.3073   46.8576   -2.9587 H           1 NHV       0.0858
@<TRIPOS>BOND
     1     1     2   1
     2     2     3   1
     3     3     4   1
     4     3     9   1
     5     4     5   1
     6     4     6   1
     7     6     7   1
     8     6    22   1
     9    22     8   1
    10     9    10   1
    11     9    13   1
    12    10    11   2
    13    11    12   1
    14    11    14   1
    15    12    13   2
    16    13    22   1
    17    14    15   1
    18    15    16   1
    19    16    17  ar
    20    16    21  ar
    21    17    18  ar
    22    18    19  ar
    23    19    20  ar
    24    20    21  ar
    25     1    23   1
    26     2    24   1
    27     2    25   1
    28     3    26   1
    29     4    27   1
    30     5    28   1
    31     6    29   1
    32     7    30   1
    33     8    31   1
    34    10    32   1
    35    14    33   1
    36    14    34   1
    37    15    35   1
    38    17    36   1
    39    18    37   1
    40    19    38   1
    41    20    39   1
    42    21    40   1
    43    22    41   1
@<TRIPOS>SUBSTRUCTURE
     1  NHV      2

