@<TRIPOS>MOLECULE
2vot_ligand_015
    41    43
SMALL
GAST_HUCK
****
This file was generated by PARSER (from files_GN.cpp)

@<TRIPOS>ATOM
      1 O6B        28.3095   45.2962   -4.8730 O.3         1 NHV      -0.3919
      2 C6B        28.0037   46.3964   -4.0229 C.3         1 NHV       0.0768
      3 C5B        28.7592   46.3017   -2.6508 C.3         1 NHV       0.1168
      4 C4B        27.8076   45.8966   -1.4681 C.3         1 NHV       0.1178
      5 O4B        28.5199   45.0646   -0.5493 O.3         1 NHV      -0.3858
      6 C3B        27.2213   47.1252   -0.7122 C.3         1 NHV       0.1252
      7 O3B        26.2865   47.8288   -1.5350 O.3         1 NHV      -0.3839
      8 O2B        27.7782   49.3066    0.2958 O.3         1 NHV      -0.3700
      9 N1B        29.5080   47.5030   -2.3680 N.pl3       1 NHV      -0.2494
     10 C8B        30.5081   48.0009   -3.1068 C.2         1 NHV       0.0253
     11 C7B        30.8250   49.2555   -2.6067 C.2         1 NHV       0.0014
     12 N2B        30.1016   49.4301   -1.4816 N.2         1 NHV      -0.3297
     13 C1B        29.2896   48.3638   -1.3537 C.2         1 NHV       0.1428
     14 C7         31.8016   50.2100   -3.1691 C.3         1 NHV       0.0480
     15 N1         31.4905   50.9185   -4.3819 N.pl3       1 NHV      -0.3158
     16 C1         31.3147   50.3041   -5.5791 C.ar        1 NHV       0.0390
     17 C6         30.2326   49.4483   -5.8914 C.ar        1 NHV      -0.0444
     18 C5         30.1727   48.7863   -7.1347 C.ar        1 NHV      -0.0737
     19 C4         31.1789   49.0026   -8.0916 C.ar        1 NHV      -0.0751
     20 C3         32.2208   49.9098   -7.8212 C.ar        1 NHV      -0.0737
     21 C2         32.2674   50.5805   -6.5852 C.ar        1 NHV      -0.0444
     22 C20        28.3339   48.1035   -0.2481 C.3         1 NHV       0.1578
     23 H1         28.1817   44.4933   -4.3132 H           1 NHV       0.2095
     24 H2         26.9212   46.4178   -3.8837 H           1 NHV       0.0589
     25 H3         28.2667   47.3024   -4.5671 H           1 NHV       0.0589
     26 H4         29.5071   45.5090   -2.7483 H           1 NHV       0.0699
     27 H5         26.9830   45.2916   -1.8480 H           1 NHV       0.0654
     28 H6         27.8292   44.6294   -0.0056 H           1 NHV       0.2100
     29 H7         26.6816   46.7676    0.1695 H           1 NHV       0.0675
     30 H8         25.5560   47.1916   -1.7018 H           1 NHV       0.2103
     31 H9         27.9404   50.0292   -0.3558 H           1 NHV       0.2138
     32 H10        30.9295   47.5599   -3.9268 H           1 NHV       0.0663
     33 H11        32.7498   49.6792   -3.3215 H           1 NHV       0.0617
     34 H12        31.9788   50.9804   -2.4162 H           1 NHV       0.0617
     35 H13        32.0077   51.7400   -4.4495 H           1 NHV       0.1774
     36 H14        29.4635   49.3222   -5.2292 H           1 NHV       0.0515
     37 H15        29.3998   48.1478   -7.3431 H           1 NHV       0.0583
     38 H16        31.1521   48.5180   -8.9892 H           1 NHV       0.0505
     39 H17        32.9545   50.0805   -8.5183 H           1 NHV       0.0583
     40 H18        33.0522   51.2113   -6.3885 H           1 NHV       0.0515
     41 H19        28.8889   47.6276    0.5634 H           1 NHV       0.0858
@<TRIPOS>BOND
     1     1     2   1
     2     2     3   1
     3     3     4   1
     4     3     9   1
     5     4     5   1
     6     4     6   1
     7     6     7   1
     8     6    22   1
     9    22     8   1
    10     9    10   1
    11     9    13   1
    12    10    11   2
    13    11    12   1
    14    11    14   1
    15    12    13   2
    16    13    22   1
    17    14    15   1
    18    15    16   1
    19    16    17  ar
    20    16    21  ar
    21    17    18  ar
    22    18    19  ar
    23    19    20  ar
    24    20    21  ar
    25     1    23   1
    26     2    24   1
    27     2    25   1
    28     3    26   1
    29     4    27   1
    30     5    28   1
    31     6    29   1
    32     7    30   1
    33     8    31   1
    34    10    32   1
    35    14    33   1
    36    14    34   1
    37    15    35   1
    38    17    36   1
    39    18    37   1
    40    19    38   1
    41    20    39   1
    42    21    40   1
    43    22    41   1
@<TRIPOS>SUBSTRUCTURE
     1  NHV      2

