@<TRIPOS>MOLECULE
2vot_ligand_028
    41    43
SMALL
GAST_HUCK
****
This file was generated by PARSER (from files_GN.cpp)

@<TRIPOS>ATOM
      1 O6B        30.4461   46.0698   -1.0373 O.3         1 NHV      -0.3919
      2 C6B        30.2538   47.4445   -0.7062 C.3         1 NHV       0.0768
      3 C5B        29.1055   48.1021   -1.5257 C.3         1 NHV       0.1168
      4 C4B        27.6918   47.4527   -1.3297 C.3         1 NHV       0.1178
      5 O4B        26.6984   48.4322   -1.6505 O.3         1 NHV      -0.3858
      6 C3B        27.4630   46.2000   -2.2237 C.3         1 NHV       0.1252
      7 O3B        28.2030   45.1027   -1.6919 O.3         1 NHV      -0.3839
      8 O2B        28.0505   45.2447   -4.4273 O.3         1 NHV      -0.3700
      9 N1B        29.4644   48.1452   -2.9173 N.pl3       1 NHV      -0.2494
     10 C8B        30.3750   48.9570   -3.4765 C.2         1 NHV       0.0253
     11 C7B        30.3552   48.7484   -4.8509 C.2         1 NHV       0.0014
     12 N2B        29.4374   47.7951   -5.0896 N.2         1 NHV      -0.3297
     13 C1B        28.9106   47.4144   -3.9096 C.2         1 NHV       0.1428
     14 C7         31.0562   49.5758   -5.8547 C.3         1 NHV       0.0480
     15 N1         31.9391   48.8929   -6.7536 N.pl3       1 NHV      -0.3158
     16 C1         31.6004   48.3521   -7.9525 C.ar        1 NHV       0.0390
     17 C6         32.5902   48.3249   -8.9712 C.ar        1 NHV      -0.0444
     18 C5         32.2874   47.8322  -10.2566 C.ar        1 NHV      -0.0737
     19 C4         31.0100   47.3361  -10.5413 C.ar        1 NHV      -0.0751
     20 C3         30.0379   47.2833   -9.5163 C.ar        1 NHV      -0.0737
     21 C2         30.3158   47.8500   -8.2598 C.ar        1 NHV      -0.0444
     22 C20        27.7926   46.4604   -3.7262 C.3         1 NHV       0.1578
     23 H1         30.7755   46.0640   -1.9592 H           1 NHV       0.2095
     24 H2         31.1910   47.9778   -0.8938 H           1 NHV       0.0589
     25 H3         30.0370   47.5091    0.3607 H           1 NHV       0.0589
     26 H4         29.0227   49.1385   -1.1696 H           1 NHV       0.0699
     27 H5         27.5422   47.1893   -0.2776 H           1 NHV       0.0654
     28 H6         25.8409   48.0001   -1.4559 H           1 NHV       0.2100
     29 H7         26.4085   45.9211   -2.1504 H           1 NHV       0.0675
     30 H8         27.6926   44.3111   -1.9636 H           1 NHV       0.2103
     31 H9         28.7303   44.7646   -3.9093 H           1 NHV       0.2138
     32 H10        30.9273   49.6589   -2.9762 H           1 NHV       0.0663
     33 H11        31.6729   50.3036   -5.3258 H           1 NHV       0.0617
     34 H12        30.3122   50.1538   -6.4115 H           1 NHV       0.0617
     35 H13        32.8738   49.1290   -6.6640 H           1 NHV       0.1774
     36 H14        33.5288   48.7012   -8.7965 H           1 NHV       0.0515
     37 H15        33.0090   47.8586  -10.9887 H           1 NHV       0.0583
     38 H16        30.8030   46.9514  -11.4622 H           1 NHV       0.0505
     39 H17        29.1287   46.8682   -9.7058 H           1 NHV       0.0583
     40 H18        29.5755   47.8446   -7.5582 H           1 NHV       0.0515
     41 H19        26.9214   46.9213   -4.1966 H           1 NHV       0.0858
@<TRIPOS>BOND
     1     1     2   1
     2     2     3   1
     3     3     4   1
     4     3     9   1
     5     4     5   1
     6     4     6   1
     7     6     7   1
     8     6    22   1
     9    22     8   1
    10     9    10   1
    11     9    13   1
    12    10    11   2
    13    11    12   1
    14    11    14   1
    15    12    13   2
    16    13    22   1
    17    14    15   1
    18    15    16   1
    19    16    17  ar
    20    16    21  ar
    21    17    18  ar
    22    18    19  ar
    23    19    20  ar
    24    20    21  ar
    25     1    23   1
    26     2    24   1
    27     2    25   1
    28     3    26   1
    29     4    27   1
    30     5    28   1
    31     6    29   1
    32     7    30   1
    33     8    31   1
    34    10    32   1
    35    14    33   1
    36    14    34   1
    37    15    35   1
    38    17    36   1
    39    18    37   1
    40    19    38   1
    41    20    39   1
    42    21    40   1
    43    22    41   1
@<TRIPOS>SUBSTRUCTURE
     1  NHV      2

