@<TRIPOS>MOLECULE
2vvn_ligand_028
    32    33
SMALL
GAST_HUCK
****
This file was generated by PARSER (from files_GN.cpp)

@<TRIPOS>ATOM
      1 C1          7.2236  -15.5777   -0.3089 C.3         1 NHT       0.1369
      2 C2          5.7968  -16.1741   -0.2757 C.3         1 NHT       0.0547
      3 C3          4.7091  -15.0654   -0.1831 C.3         1 NHT       0.0928
      4 C4          5.0591  -13.9819    0.8780 C.3         1 NHT       0.1098
      5 C5          6.4791  -13.4034    0.6033 C.3         1 NHT       0.1116
      6 C6          6.9999  -12.3503    1.6212 C.3         1 NHT       0.0730
      7 C7          6.5478  -16.5064   -2.4653 C.2         1 NHT       0.1594
      8 C10         8.8063  -17.2704   -4.6270 C.3         1 NHT      -0.0438
      9 N2          5.6942  -16.8872   -1.4996 N.2         1 NHT      -0.3555
     10 O3          3.4464  -15.6574    0.1012 O.3         1 NHT      -0.3886
     11 O4          4.0745  -12.9478    0.8324 O.3         1 NHT      -0.3866
     12 O5          7.4410  -14.4783    0.5951 O.3         1 NHT      -0.3538
     13 N1          6.5211  -17.1370   -3.6595 N.pl3       1 NHT      -0.2802
     14 O6          5.9810  -11.5618    2.2248 O.3         1 NHT      -0.3924
     15 S1          7.5805  -15.1740   -2.0308 S.3         1 NHT       0.0009
     16 C9          7.3331  -16.8352   -4.7946 C.3         1 NHT       0.0329
     17 H1          7.9321  -16.3574   -0.0167 H           1 NHT       0.0757
     18 H2          5.7047  -16.8684    0.5696 H           1 NHT       0.0398
     19 H3          4.6156  -14.5786   -1.1610 H           1 NHT       0.0626
     20 H4          5.0285  -14.4335    1.8733 H           1 NHT       0.0646
     21 H5          6.4604  -12.9229   -0.3787 H           1 NHT       0.0646
     22 H6          7.6761  -11.6629    1.1079 H           1 NHT       0.0584
     23 H7          7.5737  -12.8299    2.4155 H           1 NHT       0.0584
     24 H8          9.3655  -17.0232   -5.5302 H           1 NHT       0.0250
     25 H9          8.8608  -18.3473   -4.4590 H           1 NHT       0.0250
     26 H10         9.2823  -16.7609   -3.7886 H           1 NHT       0.0250
     27 H11         3.5385  -16.0326    1.0000 H           1 NHT       0.2099
     28 H12         4.1269  -12.5781   -0.0747 H           1 NHT       0.2100
     29 H13         5.8804  -17.8633   -3.7486 H           1 NHT       0.1939
     30 H14         5.4766  -12.1764    2.7990 H           1 NHT       0.2095
     31 H15         6.9229  -17.3857   -5.6440 H           1 NHT       0.0531
     32 H16         7.2764  -15.7691   -5.0297 H           1 NHT       0.0531
@<TRIPOS>BOND
     1     1     2   1
     2     1    12   1
     3    15     1   1
     4     2     3   1
     5     9     2   1
     6     3     4   1
     7     3    10   1
     8     5     4   1
     9     4    11   1
    10     5     6   1
    11    12     5   1
    12     6    14   1
    13     7     9   2
    14    13     7   1
    15     7    15   1
    16    16     8   1
    17    13    16   1
    18     1    17   1
    19     2    18   1
    20     3    19   1
    21     4    20   1
    22     5    21   1
    23     6    22   1
    24     6    23   1
    25     8    24   1
    26     8    25   1
    27     8    26   1
    28    10    27   1
    29    11    28   1
    30    13    29   1
    31    14    30   1
    32    16    31   1
    33    16    32   1
@<TRIPOS>SUBSTRUCTURE
     1  NHT      1

