@<TRIPOS>MOLECULE
2vvn_ligand_013
    32    33
SMALL
GAST_HUCK
****
This file was generated by PARSER (from files_GN.cpp)

@<TRIPOS>ATOM
      1 C1          7.7303  -17.0248   -0.6962 C.3         1 NHT       0.1369
      2 C2          7.9200  -15.4812   -0.7521 C.3         1 NHT       0.0547
      3 C3          7.1337  -14.7771   -1.8924 C.3         1 NHT       0.0928
      4 C4          5.7176  -15.3827   -2.0889 C.3         1 NHT       0.1098
      5 C5          5.7276  -16.9398   -2.1337 C.3         1 NHT       0.1116
      6 C6          6.2504  -17.6124   -3.4382 C.3         1 NHT       0.0730
      7 C7          7.4960  -15.9305    1.4977 C.2         1 NHT       0.1594
      8 C10         5.6308  -15.9604    4.6075 C.3         1 NHT      -0.0438
      9 N2          7.5118  -15.0187    0.5182 N.2         1 NHT      -0.3555
     10 O3          7.8841  -14.7838   -3.1115 O.3         1 NHT      -0.3886
     11 O4          4.8711  -14.9669   -1.0164 O.3         1 NHT      -0.3866
     12 O5          6.3826  -17.4663   -0.9662 O.3         1 NHT      -0.3538
     13 N1          7.0893  -15.5319    2.7221 N.pl3       1 NHT      -0.2802
     14 O6          5.5683  -17.1520   -4.6065 O.3         1 NHT      -0.3924
     15 S1          8.0582  -17.5008    1.0115 S.3         1 NHT       0.0009
     16 C9          6.9460  -16.3352    3.8937 C.3         1 NHT       0.0329
     17 H1          8.4343  -17.5265   -1.3601 H           1 NHT       0.0757
     18 H2          8.9848  -15.2535   -0.8630 H           1 NHT       0.0398
     19 H3          7.0143  -13.7188   -1.6381 H           1 NHT       0.0626
     20 H4          5.2731  -14.9920   -3.0036 H           1 NHT       0.0646
     21 H5          4.6808  -17.2593   -2.0559 H           1 NHT       0.0646
     22 H6          6.0903  -18.6949   -3.3697 H           1 NHT       0.0584
     23 H7          7.3238  -17.4422   -3.5721 H           1 NHT       0.0584
     24 H8          5.5448  -16.5226    5.5375 H           1 NHT       0.0250
     25 H9          4.7814  -16.1962    3.9660 H           1 NHT       0.0250
     26 H10         5.6177  -14.8926    4.8396 H           1 NHT       0.0250
     27 H11         8.4282  -15.5961   -3.0897 H           1 NHT       0.2099
     28 H12         4.5530  -14.0732   -1.2545 H           1 NHT       0.2100
     29 H13         6.8519  -14.5948    2.8082 H           1 NHT       0.1939
     30 H14         5.6496  -16.1739   -4.5900 H           1 NHT       0.2095
     31 H15         6.9245  -17.4017    3.6556 H           1 NHT       0.0531
     32 H16         7.7924  -16.1404    4.5552 H           1 NHT       0.0531
@<TRIPOS>BOND
     1     1     2   1
     2     1    12   1
     3    15     1   1
     4     2     3   1
     5     9     2   1
     6     3     4   1
     7     3    10   1
     8     5     4   1
     9     4    11   1
    10     5     6   1
    11    12     5   1
    12     6    14   1
    13     7     9   2
    14    13     7   1
    15     7    15   1
    16    16     8   1
    17    13    16   1
    18     1    17   1
    19     2    18   1
    20     3    19   1
    21     4    20   1
    22     5    21   1
    23     6    22   1
    24     6    23   1
    25     8    24   1
    26     8    25   1
    27     8    26   1
    28    10    27   1
    29    11    28   1
    30    13    29   1
    31    14    30   1
    32    16    31   1
    33    16    32   1
@<TRIPOS>SUBSTRUCTURE
     1  NHT      1

