@<TRIPOS>MOLECULE
2vvn_ligand_017
    32    33
SMALL
GAST_HUCK
****
This file was generated by PARSER (from files_GN.cpp)

@<TRIPOS>ATOM
      1 C1          5.2133  -11.8029    4.1717 C.3         1 NHT       0.1369
      2 C2          6.0589  -11.3226    2.9553 C.3         1 NHT       0.0547
      3 C3          7.0124  -10.1477    3.3417 C.3         1 NHT       0.0928
      4 C4          7.7252  -10.3588    4.7071 C.3         1 NHT       0.1098
      5 C5          6.7631  -10.8794    5.8359 C.3         1 NHT       0.1116
      6 C6          6.7236   -9.9790    7.0886 C.3         1 NHT       0.0730
      7 C7          6.6042  -13.6113    3.0939 C.2         1 NHT       0.1594
      8 C10         5.9365  -16.7824    2.9874 C.3         1 NHT      -0.0438
      9 N2          6.7749  -12.4396    2.4654 N.2         1 NHT      -0.3555
     10 O3          6.2671   -8.9294    3.3846 O.3         1 NHT      -0.3886
     11 O4          8.8054  -11.2678    4.5217 O.3         1 NHT      -0.3866
     12 O5          5.4027  -11.0134    5.3722 O.3         1 NHT      -0.3538
     13 N1          7.2602  -14.7038    2.6472 N.pl3       1 NHT      -0.2802
     14 O6          7.9776   -9.9630    7.7752 O.3         1 NHT      -0.3924
     15 S1          5.5471  -13.5625    4.4599 S.3         1 NHT       0.0009
     16 C9          7.2521  -16.0050    3.2359 C.3         1 NHT       0.0329
     17 H1          4.1509  -11.7286    3.9133 H           1 NHT       0.0757
     18 H2          5.4009  -10.9845    2.1534 H           1 NHT       0.0398
     19 H3          7.7677  -10.0159    2.5603 H           1 NHT       0.0626
     20 H4          8.1766   -9.4007    4.9934 H           1 NHT       0.0646
     21 H5          7.1021  -11.8631    6.1685 H           1 NHT       0.0646
     22 H6          5.9671  -10.3496    7.7894 H           1 NHT       0.0584
     23 H7          6.4613   -8.9528    6.8162 H           1 NHT       0.0584
     24 H8          6.0533  -17.8119    3.3384 H           1 NHT       0.0250
     25 H9          5.7010  -16.7969    1.9175 H           1 NHT       0.0250
     26 H10         5.1019  -16.3246    3.5291 H           1 NHT       0.0250
     27 H11         5.3333   -9.1818    3.5982 H           1 NHT       0.2099
     28 H12         9.4568  -11.0089    5.2088 H           1 NHT       0.2100
     29 H13         7.8362  -14.5745    1.8691 H           1 NHT       0.1939
     30 H14         8.1417  -10.9046    8.0170 H           1 NHT       0.2095
     31 H15         8.0697  -16.5678    2.7905 H           1 NHT       0.0531
     32 H16         7.4459  -15.9288    4.3052 H           1 NHT       0.0531
@<TRIPOS>BOND
     1     1     2   1
     2     1    12   1
     3    15     1   1
     4     2     3   1
     5     9     2   1
     6     3     4   1
     7     3    10   1
     8     5     4   1
     9     4    11   1
    10     5     6   1
    11    12     5   1
    12     6    14   1
    13     7     9   2
    14    13     7   1
    15     7    15   1
    16    16     8   1
    17    13    16   1
    18     1    17   1
    19     2    18   1
    20     3    19   1
    21     4    20   1
    22     5    21   1
    23     6    22   1
    24     6    23   1
    25     8    24   1
    26     8    25   1
    27     8    26   1
    28    10    27   1
    29    11    28   1
    30    13    29   1
    31    14    30   1
    32    16    31   1
    33    16    32   1
@<TRIPOS>SUBSTRUCTURE
     1  NHT      1

