@<TRIPOS>MOLECULE
2vvn_ligand_022
    32    33
SMALL
GAST_HUCK
****
This file was generated by PARSER (from files_GN.cpp)

@<TRIPOS>ATOM
      1 C1          7.0424  -12.6786    2.4674 C.3         1 NHT       0.1369
      2 C2          6.3134  -13.3643    3.6554 C.3         1 NHT       0.0547
      3 C3          5.4794  -12.3621    4.5008 C.3         1 NHT       0.0928
      4 C4          6.2773  -11.0440    4.6840 C.3         1 NHT       0.1098
      5 C5          6.6357  -10.4061    3.2959 C.3         1 NHT       0.1116
      6 C6          7.9759   -9.6083    3.2817 C.3         1 NHT       0.0730
      7 C7          5.6083  -14.6366    1.8131 C.2         1 NHT       0.1594
      8 C10         4.2534  -17.3686   -0.3464 C.3         1 NHT      -0.0438
      9 N2          5.5109  -14.3998    3.1241 N.2         1 NHT      -0.3555
     10 O3          5.1723  -12.9484    5.7648 O.3         1 NHT      -0.3886
     11 O4          5.5355  -10.1345    5.4932 O.3         1 NHT      -0.3866
     12 O5          6.5621  -11.3467    2.1996 O.3         1 NHT      -0.3538
     13 N1          4.9072  -15.6441    1.2527 N.pl3       1 NHT      -0.2802
     14 O6          8.9845  -10.2038    2.4673 O.3         1 NHT      -0.3924
     15 S1          6.7515  -13.6429    0.9770 S.3         1 NHT       0.0009
     16 C9          4.9182  -15.9995   -0.1278 C.3         1 NHT       0.0329
     17 H1          8.1196  -12.6601    2.6496 H           1 NHT       0.0757
     18 H2          7.0569  -13.8390    4.2995 H           1 NHT       0.0398
     19 H3          4.5347  -12.1445    3.9934 H           1 NHT       0.0626
     20 H4          7.1886  -11.2848    5.2355 H           1 NHT       0.0646
     21 H5          5.8411   -9.6891    3.0661 H           1 NHT       0.0646
     22 H6          8.3857   -9.5044    4.2852 H           1 NHT       0.0584
     23 H7          7.7941   -8.6005    2.9056 H           1 NHT       0.0584
     24 H8          4.2759  -17.6290   -1.4031 H           1 NHT       0.0250
     25 H9          3.2164  -17.3487   -0.0151 H           1 NHT       0.0250
     26 H10         4.7896  -18.1367    0.2103 H           1 NHT       0.0250
     27 H11         4.5197  -12.3472    6.1828 H           1 NHT       0.2099
     28 H12         6.1615   -9.4205    5.7406 H           1 NHT       0.2100
     29 H13         4.3421  -16.1638    1.8422 H           1 NHT       0.1939
     30 H14         9.1287   -9.5727    1.7320 H           1 NHT       0.2095
     31 H15         4.3863  -15.2318   -0.6919 H           1 NHT       0.0531
     32 H16         5.9417  -16.0596   -0.5038 H           1 NHT       0.0531
@<TRIPOS>BOND
     1     1     2   1
     2     1    12   1
     3    15     1   1
     4     2     3   1
     5     9     2   1
     6     3     4   1
     7     3    10   1
     8     5     4   1
     9     4    11   1
    10     5     6   1
    11    12     5   1
    12     6    14   1
    13     7     9   2
    14    13     7   1
    15     7    15   1
    16    16     8   1
    17    13    16   1
    18     1    17   1
    19     2    18   1
    20     3    19   1
    21     4    20   1
    22     5    21   1
    23     6    22   1
    24     6    23   1
    25     8    24   1
    26     8    25   1
    27     8    26   1
    28    10    27   1
    29    11    28   1
    30    13    29   1
    31    14    30   1
    32    16    31   1
    33    16    32   1
@<TRIPOS>SUBSTRUCTURE
     1  NHT      1

