@<TRIPOS>MOLECULE
2vvn_ligand_033
    32    33
SMALL
GAST_HUCK
****
This file was generated by PARSER (from files_GN.cpp)

@<TRIPOS>ATOM
      1 C1          6.4467  -16.5234   -2.4471 C.3         1 NHT       0.1369
      2 C2          5.9817  -17.3019   -3.7033 C.3         1 NHT       0.0547
      3 C3          7.0785  -17.3624   -4.8065 C.3         1 NHT       0.0928
      4 C4          8.4818  -17.7162   -4.2503 C.3         1 NHT       0.1098
      5 C5          8.8494  -16.8398   -3.0145 C.3         1 NHT       0.1116
      6 C6          9.3998  -15.4246   -3.3370 C.3         1 NHT       0.0730
      7 C7          5.2847  -18.6273   -1.9004 C.2         1 NHT       0.1594
      8 C10         5.7455  -20.0171    0.9899 C.3         1 NHT      -0.0438
      9 N2          5.5842  -18.5702   -3.2102 N.2         1 NHT      -0.3555
     10 O3          7.1607  -16.1028   -5.4747 O.3         1 NHT      -0.3886
     11 O4          8.5125  -19.0999   -3.8897 O.3         1 NHT      -0.3866
     12 O5          7.7937  -16.8265   -2.0342 O.3         1 NHT      -0.3538
     13 N1          4.8889  -19.7958   -1.3387 N.pl3       1 NHT      -0.2802
     14 O6          8.4164  -14.4251   -3.5768 O.3         1 NHT      -0.3924
     15 S1          5.4133  -17.0927   -1.0900 S.3         1 NHT       0.0009
     16 C9          4.5353  -20.0054    0.0299 C.3         1 NHT       0.0329
     17 H1          6.3002  -15.4539   -2.5760 H           1 NHT       0.0757
     18 H2          5.0886  -16.8202   -4.1254 H           1 NHT       0.0398
     19 H3          6.7920  -18.1046   -5.5592 H           1 NHT       0.0626
     20 H4          9.2312  -17.5857   -5.0422 H           1 NHT       0.0646
     21 H5          9.6706  -17.3596   -2.5137 H           1 NHT       0.0646
     22 H6         10.0327  -15.4838   -4.2251 H           1 NHT       0.0584
     23 H7         10.0217  -15.0874   -2.5067 H           1 NHT       0.0584
     24 H8          5.4067  -20.1987    2.0107 H           1 NHT       0.0250
     25 H9          6.2650  -19.0536    0.9622 H           1 NHT       0.0250
     26 H10         6.4452  -20.8035    0.7127 H           1 NHT       0.0250
     27 H11         6.2931  -15.6620   -5.3128 H           1 NHT       0.2099
     28 H12         7.8681  -19.1886   -3.1561 H           1 NHT       0.2100
     29 H13         4.8079  -20.5575   -1.9354 H           1 NHT       0.1939
     30 H14         8.0311  -14.1923   -2.7104 H           1 NHT       0.2095
     31 H15         3.8310  -19.2432    0.3453 H           1 NHT       0.0531
     32 H16         4.0331  -20.9763    0.0938 H           1 NHT       0.0531
@<TRIPOS>BOND
     1     1     2   1
     2     1    12   1
     3    15     1   1
     4     2     3   1
     5     9     2   1
     6     3     4   1
     7     3    10   1
     8     5     4   1
     9     4    11   1
    10     5     6   1
    11    12     5   1
    12     6    14   1
    13     7     9   2
    14    13     7   1
    15     7    15   1
    16    16     8   1
    17    13    16   1
    18     1    17   1
    19     2    18   1
    20     3    19   1
    21     4    20   1
    22     5    21   1
    23     6    22   1
    24     6    23   1
    25     8    24   1
    26     8    25   1
    27     8    26   1
    28    10    27   1
    29    11    28   1
    30    13    29   1
    31    14    30   1
    32    16    31   1
    33    16    32   1
@<TRIPOS>SUBSTRUCTURE
     1  NHT      1

