@<TRIPOS>MOLECULE
2vvn_ligand_010
    32    33
SMALL
GAST_HUCK
****
This file was generated by PARSER (from files_GN.cpp)

@<TRIPOS>ATOM
      1 C1          9.6302  -16.9405   -2.7775 C.3         1 NHT       0.1369
      2 C2          9.2281  -15.5886   -2.1291 C.3         1 NHT       0.0547
      3 C3          7.7591  -15.1667   -2.4187 C.3         1 NHT       0.0928
      4 C4          6.7676  -16.3591   -2.3462 C.3         1 NHT       0.1098
      5 C5          7.2818  -17.5976   -3.1386 C.3         1 NHT       0.1116
      6 C6          7.2040  -17.5010   -4.6905 C.3         1 NHT       0.0730
      7 C7         10.3277  -16.7359   -0.4246 C.2         1 NHT       0.1594
      8 C10         9.2375  -17.5543    2.7663 C.3         1 NHT      -0.0438
      9 N2          9.4681  -15.7579   -0.7443 N.2         1 NHT      -0.3555
     10 O3          7.6825  -14.5356   -3.6990 O.3         1 NHT      -0.3886
     11 O4          6.5591  -16.7283   -0.9809 O.3         1 NHT      -0.3866
     12 O5          8.6090  -17.9540   -2.6959 O.3         1 NHT      -0.3538
     13 N1         10.6523  -17.0993    0.8339 N.pl3       1 NHT      -0.2802
     14 O6          5.9102  -17.1067   -5.1357 O.3         1 NHT      -0.3924
     15 S1         11.0093  -17.5498   -1.7903 S.3         1 NHT       0.0009
     16 C9         10.1281  -16.5319    2.0345 C.3         1 NHT       0.0329
     17 H1          9.9530  -16.8018   -3.8110 H           1 NHT       0.0757
     18 H2          9.9004  -14.8035   -2.4875 H           1 NHT       0.0398
     19 H3          7.4515  -14.4114   -1.6879 H           1 NHT       0.0626
     20 H4          5.7918  -16.0440   -2.7266 H           1 NHT       0.0646
     21 H5          6.6481  -18.4450   -2.8646 H           1 NHT       0.0646
     22 H6          7.4146  -18.4859   -5.1156 H           1 NHT       0.0584
     23 H7          7.9337  -16.7959   -5.0913 H           1 NHT       0.0584
     24 H8          8.8402  -17.1079    3.6810 H           1 NHT       0.0250
     25 H9          9.8182  -18.4435    3.0275 H           1 NHT       0.0250
     26 H10         8.3993  -17.8513    2.1299 H           1 NHT       0.0250
     27 H11         6.7580  -14.2171   -3.7760 H           1 NHT       0.2099
     28 H12         7.4394  -16.9929   -0.6409 H           1 NHT       0.2100
     29 H13        11.2687  -17.8421    0.9284 H           1 NHT       0.1939
     30 H14         5.8399  -16.1531   -4.9178 H           1 NHT       0.2095
     31 H15        10.9637  -16.2532    2.6797 H           1 NHT       0.0531
     32 H16         9.5351  -15.6309    1.8491 H           1 NHT       0.0531
@<TRIPOS>BOND
     1     1     2   1
     2     1    12   1
     3    15     1   1
     4     2     3   1
     5     9     2   1
     6     3     4   1
     7     3    10   1
     8     5     4   1
     9     4    11   1
    10     5     6   1
    11    12     5   1
    12     6    14   1
    13     7     9   2
    14    13     7   1
    15     7    15   1
    16    16     8   1
    17    13    16   1
    18     1    17   1
    19     2    18   1
    20     3    19   1
    21     4    20   1
    22     5    21   1
    23     6    22   1
    24     6    23   1
    25     8    24   1
    26     8    25   1
    27     8    26   1
    28    10    27   1
    29    11    28   1
    30    13    29   1
    31    14    30   1
    32    16    31   1
    33    16    32   1
@<TRIPOS>SUBSTRUCTURE
     1  NHT      1

