@<TRIPOS>MOLECULE
2vvn_ligand_031
    32    33
SMALL
GAST_HUCK
****
This file was generated by PARSER (from files_GN.cpp)

@<TRIPOS>ATOM
      1 C1          6.9412  -17.5306   -0.9272 C.3         1 NHT       0.1369
      2 C2          6.4481  -16.7339   -2.1675 C.3         1 NHT       0.0547
      3 C3          5.4286  -17.5387   -3.0265 C.3         1 NHT       0.0928
      4 C4          5.8146  -19.0409   -3.0711 C.3         1 NHT       0.1098
      5 C5          5.8654  -19.6305   -1.6219 C.3         1 NHT       0.1116
      6 C6          6.8530  -20.8146   -1.4575 C.3         1 NHT       0.0730
      7 C7          6.0208  -15.2541   -0.3903 C.2         1 NHT       0.1594
      8 C10         6.9292  -13.2068    1.9373 C.3         1 NHT      -0.0438
      9 N2          5.8879  -15.5197   -1.6961 N.2         1 NHT      -0.3555
     10 O3          5.3788  -17.0284   -4.3580 O.3         1 NHT      -0.3886
     11 O4          4.9080  -19.7761   -3.8974 O.3         1 NHT      -0.3866
     12 O5          6.0912  -18.6418   -0.5912 O.3         1 NHT      -0.3538
     13 N1          5.4977  -14.1107    0.1113 N.pl3       1 NHT      -0.2802
     14 O6          8.2032  -20.4272   -1.6965 O.3         1 NHT      -0.3924
     15 S1          6.9125  -16.4449    0.5047 S.3         1 NHT       0.0009
     16 C9          5.5311  -13.6724    1.4715 C.3         1 NHT       0.0329
     17 H1          7.9675  -17.8731   -1.0674 H           1 NHT       0.0757
     18 H2          7.3083  -16.4767   -2.7895 H           1 NHT       0.0398
     19 H3          4.4291  -17.4506   -2.5905 H           1 NHT       0.0626
     20 H4          6.8010  -19.1175   -3.5383 H           1 NHT       0.0646
     21 H5          4.8723  -20.0276   -1.3970 H           1 NHT       0.0646
     22 H6          6.5903  -21.6171   -2.1496 H           1 NHT       0.0584
     23 H7          6.7837  -21.2046   -0.4379 H           1 NHT       0.0584
     24 H8          6.8778  -12.8500    2.9652 H           1 NHT       0.0250
     25 H9          7.2860  -12.3943    1.3049 H           1 NHT       0.0250
     26 H10         7.6560  -14.0187    1.9002 H           1 NHT       0.0250
     27 H11         5.3134  -16.0522   -4.2755 H           1 NHT       0.2099
     28 H12         4.0196  -19.6204   -3.5117 H           1 NHT       0.2100
     29 H13         5.0134  -13.5434   -0.5101 H           1 NHT       0.1939
     30 H14         8.7325  -21.2426   -1.5585 H           1 NHT       0.2095
     31 H15         4.8497  -12.8255    1.5611 H           1 NHT       0.0531
     32 H16         5.1664  -14.4665    2.1302 H           1 NHT       0.0531
@<TRIPOS>BOND
     1     1     2   1
     2     1    12   1
     3    15     1   1
     4     2     3   1
     5     9     2   1
     6     3     4   1
     7     3    10   1
     8     5     4   1
     9     4    11   1
    10     5     6   1
    11    12     5   1
    12     6    14   1
    13     7     9   2
    14    13     7   1
    15     7    15   1
    16    16     8   1
    17    13    16   1
    18     1    17   1
    19     2    18   1
    20     3    19   1
    21     4    20   1
    22     5    21   1
    23     6    22   1
    24     6    23   1
    25     8    24   1
    26     8    25   1
    27     8    26   1
    28    10    27   1
    29    11    28   1
    30    13    29   1
    31    14    30   1
    32    16    31   1
    33    16    32   1
@<TRIPOS>SUBSTRUCTURE
     1  NHT      1

