@<TRIPOS>MOLECULE
2vvn_ligand_046
    32    33
SMALL
GAST_HUCK
****
This file was generated by PARSER (from files_GN.cpp)

@<TRIPOS>ATOM
      1 C1          7.2404  -11.4804    2.6150 C.3         1 NHT       0.1369
      2 C2          6.2787  -12.7002    2.5401 C.3         1 NHT       0.0547
      3 C3          6.0851  -13.4424    3.8948 C.3         1 NHT       0.0928
      4 C4          5.9887  -12.4666    5.0987 C.3         1 NHT       0.1098
      5 C5          7.0907  -11.3698    5.0817 C.3         1 NHT       0.1116
      6 C6          8.5206  -11.8397    5.5021 C.3         1 NHT       0.0730
      7 C7          5.1254  -10.9610    1.5124 C.2         1 NHT       0.1594
      8 C10         2.1800  -11.5109    0.2721 C.3         1 NHT      -0.0438
      9 N2          5.0462  -12.1615    2.0982 N.2         1 NHT      -0.3555
     10 O3          7.1156  -14.4082    4.0986 O.3         1 NHT      -0.3886
     11 O4          4.7086  -11.8315    5.1058 O.3         1 NHT      -0.3866
     12 O5          7.0965  -10.6856    3.8140 O.3         1 NHT      -0.3538
     13 N1          4.0521  -10.2288    1.1562 N.pl3       1 NHT      -0.2802
     14 O6          9.1647  -10.8587    6.3048 O.3         1 NHT      -0.3924
     15 S1          6.7356  -10.3817    1.2798 S.3         1 NHT       0.0009
     16 C9          2.6918  -10.5901    1.3901 C.3         1 NHT       0.0329
     17 H1          8.2795  -11.7807    2.4685 H           1 NHT       0.0757
     18 H2          6.6341  -13.4178    1.7873 H           1 NHT       0.0398
     19 H3          5.1612  -14.0230    3.8498 H           1 NHT       0.0626
     20 H4          6.0427  -13.0326    6.0249 H           1 NHT       0.0646
     21 H5          6.7746  -10.6189    5.8109 H           1 NHT       0.0646
     22 H6          9.1489  -12.0168    4.6279 H           1 NHT       0.0584
     23 H7          8.4837  -12.7630    6.0849 H           1 NHT       0.0584
     24 H8          1.1433  -11.7781    0.4710 H           1 NHT       0.0250
     25 H9          2.7877  -12.4152    0.2320 H           1 NHT       0.0250
     26 H10         2.2324  -11.0085   -0.6980 H           1 NHT       0.0250
     27 H11         7.9589  -13.9162    4.0236 H           1 NHT       0.2099
     28 H12         4.7086  -11.2563    4.3124 H           1 NHT       0.2100
     29 H13         4.2097   -9.3811    0.7146 H           1 NHT       0.1939
     30 H14         8.6431  -10.8423    7.1389 H           1 NHT       0.2095
     31 H15         2.5827  -11.0824    2.3599 H           1 NHT       0.0531
     32 H16         2.0853   -9.6791    1.4211 H           1 NHT       0.0531
@<TRIPOS>BOND
     1     1     2   1
     2     1    12   1
     3    15     1   1
     4     2     3   1
     5     9     2   1
     6     3     4   1
     7     3    10   1
     8     5     4   1
     9     4    11   1
    10     5     6   1
    11    12     5   1
    12     6    14   1
    13     7     9   2
    14    13     7   1
    15     7    15   1
    16    16     8   1
    17    13    16   1
    18     1    17   1
    19     2    18   1
    20     3    19   1
    21     4    20   1
    22     5    21   1
    23     6    22   1
    24     6    23   1
    25     8    24   1
    26     8    25   1
    27     8    26   1
    28    10    27   1
    29    11    28   1
    30    13    29   1
    31    14    30   1
    32    16    31   1
    33    16    32   1
@<TRIPOS>SUBSTRUCTURE
     1  NHT      1

