@<TRIPOS>MOLECULE
2vvn_ligand_003
    32    33
SMALL
GAST_HUCK
****
This file was generated by PARSER (from files_GN.cpp)

@<TRIPOS>ATOM
      1 C1          5.4613  -10.9108    3.2809 C.3         1 NHT       0.1369
      2 C2          6.7700  -11.2990    2.5321 C.3         1 NHT       0.0547
      3 C3          7.9904  -11.4480    3.4915 C.3         1 NHT       0.0928
      4 C4          7.5802  -12.1892    4.7930 C.3         1 NHT       0.1098
      5 C5          6.4147  -11.4468    5.5388 C.3         1 NHT       0.1116
      6 C6          6.8307  -10.5657    6.7551 C.3         1 NHT       0.0730
      7 C7          5.2947  -13.0764    2.0396 C.2         1 NHT       0.1594
      8 C10         5.7916  -14.7226   -0.7218 C.3         1 NHT      -0.0438
      9 N2          6.5015  -12.5098    1.8485 N.2         1 NHT      -0.3555
     10 O3          8.5004  -10.1542    3.8374 O.3         1 NHT      -0.3886
     11 O4          7.1779  -13.5247    4.4769 O.3         1 NHT      -0.3866
     12 O5          5.6490  -10.5745    4.6708 O.3         1 NHT      -0.3538
     13 N1          4.8939  -14.2737    1.5508 N.pl3       1 NHT      -0.2802
     14 O6          8.0426  -10.9230    7.4112 O.3         1 NHT      -0.3924
     15 S1          4.2393  -12.2283    3.1122 S.3         1 NHT       0.0009
     16 C9          5.6843  -15.1595    0.7539 C.3         1 NHT       0.0329
     17 H1          5.0375  -10.0233    2.8052 H           1 NHT       0.0757
     18 H2          7.0074  -10.5459    1.7728 H           1 NHT       0.0398
     19 H3          8.7979  -11.9961    2.9873 H           1 NHT       0.0626
     20 H4          8.4700  -12.3070    5.4122 H           1 NHT       0.0646
     21 H5          5.7266  -12.2141    5.9079 H           1 NHT       0.0646
     22 H6          6.0391  -10.6109    7.5035 H           1 NHT       0.0584
     23 H7          6.9331   -9.5264    6.4647 H           1 NHT       0.0584
     24 H8          6.3545  -15.4682   -1.2858 H           1 NHT       0.0250
     25 H9          6.3058  -13.7647   -0.8020 H           1 NHT       0.0250
     26 H10         4.7957  -14.6325   -1.1629 H           1 NHT       0.0250
     27 H11         9.1941  -10.3129    4.5142 H           1 NHT       0.2099
     28 H12         7.9141  -13.9091    3.9565 H           1 NHT       0.2100
     29 H13         4.0253  -14.6067    1.8343 H           1 NHT       0.1939
     30 H14         8.7608  -10.5645    6.8352 H           1 NHT       0.2095
     31 H15         6.6846  -15.2736    1.1826 H           1 NHT       0.0531
     32 H16         5.1978  -16.1376    0.7794 H           1 NHT       0.0531
@<TRIPOS>BOND
     1     1     2   1
     2     1    12   1
     3    15     1   1
     4     2     3   1
     5     9     2   1
     6     3     4   1
     7     3    10   1
     8     5     4   1
     9     4    11   1
    10     5     6   1
    11    12     5   1
    12     6    14   1
    13     7     9   2
    14    13     7   1
    15     7    15   1
    16    16     8   1
    17    13    16   1
    18     1    17   1
    19     2    18   1
    20     3    19   1
    21     4    20   1
    22     5    21   1
    23     6    22   1
    24     6    23   1
    25     8    24   1
    26     8    25   1
    27     8    26   1
    28    10    27   1
    29    11    28   1
    30    13    29   1
    31    14    30   1
    32    16    31   1
    33    16    32   1
@<TRIPOS>SUBSTRUCTURE
     1  NHT      1

