@<TRIPOS>MOLECULE
2vvn_ligand_036
    32    33
SMALL
GAST_HUCK
****
This file was generated by PARSER (from files_GN.cpp)

@<TRIPOS>ATOM
      1 C1          6.8438  -15.1474   -0.6770 C.3         1 NHT       0.1369
      2 C2          5.9974  -15.4539   -1.9485 C.3         1 NHT       0.0547
      3 C3          6.8644  -15.9524   -3.1405 C.3         1 NHT       0.0928
      4 C4          7.9102  -17.0140   -2.6963 C.3         1 NHT       0.1098
      5 C5          8.7228  -16.5551   -1.4318 C.3         1 NHT       0.1116
      6 C6         10.2337  -16.3658   -1.7176 C.3         1 NHT       0.0730
      7 C7          5.0568  -16.8657   -0.3025 C.2         1 NHT       0.1594
      8 C10         2.4381  -19.4782    0.3152 C.3         1 NHT      -0.0438
      9 N2          5.0375  -16.4256   -1.5719 N.2         1 NHT      -0.3555
     10 O3          7.5223  -14.8430   -3.7621 O.3         1 NHT      -0.3886
     11 O4          7.2571  -18.2543   -2.4214 O.3         1 NHT      -0.3866
     12 O5          8.2623  -15.2996   -0.8811 O.3         1 NHT      -0.3538
     13 N1          4.2260  -17.7995    0.1977 N.pl3       1 NHT      -0.2802
     14 O6         10.8285  -17.5799   -2.1713 O.3         1 NHT      -0.3924
     15 S1          6.2697  -16.1601    0.7067 S.3         1 NHT       0.0009
     16 C9          3.1674  -18.4241   -0.5365 C.3         1 NHT       0.0329
     17 H1          6.6811  -14.1053   -0.3901 H           1 NHT       0.0757
     18 H2          5.4471  -14.5624   -2.2620 H           1 NHT       0.0398
     19 H3          6.2154  -16.3898   -3.9055 H           1 NHT       0.0626
     20 H4          8.5777  -17.2077   -3.5396 H           1 NHT       0.0646
     21 H5          8.6429  -17.3145   -0.6480 H           1 NHT       0.0646
     22 H6         10.7463  -16.0519   -0.8043 H           1 NHT       0.0584
     23 H7         10.3762  -15.5903   -2.4755 H           1 NHT       0.0584
     24 H8          1.6503  -19.9474   -0.2810 H           1 NHT       0.0250
     25 H9          1.9823  -19.0121    1.1885 H           1 NHT       0.0250
     26 H10         3.1388  -20.2497    0.6414 H           1 NHT       0.0250
     27 H11         7.9515  -14.3412   -3.0373 H           1 NHT       0.2099
     28 H12         6.8817  -18.5509   -3.2767 H           1 NHT       0.2100
     29 H13         4.3553  -18.0651    1.1252 H           1 NHT       0.1939
     30 H14        11.7667  -17.3523   -2.3474 H           1 NHT       0.2095
     31 H15         2.4503  -17.6595   -0.8437 H           1 NHT       0.0531
     32 H16         3.5782  -18.9013   -1.4284 H           1 NHT       0.0531
@<TRIPOS>BOND
     1     1     2   1
     2     1    12   1
     3    15     1   1
     4     2     3   1
     5     9     2   1
     6     3     4   1
     7     3    10   1
     8     5     4   1
     9     4    11   1
    10     5     6   1
    11    12     5   1
    12     6    14   1
    13     7     9   2
    14    13     7   1
    15     7    15   1
    16    16     8   1
    17    13    16   1
    18     1    17   1
    19     2    18   1
    20     3    19   1
    21     4    20   1
    22     5    21   1
    23     6    22   1
    24     6    23   1
    25     8    24   1
    26     8    25   1
    27     8    26   1
    28    10    27   1
    29    11    28   1
    30    13    29   1
    31    14    30   1
    32    16    31   1
    33    16    32   1
@<TRIPOS>SUBSTRUCTURE
     1  NHT      1

