@<TRIPOS>MOLECULE
2vvn_ligand_005
    32    33
SMALL
GAST_HUCK
****
This file was generated by PARSER (from files_GN.cpp)

@<TRIPOS>ATOM
      1 C1          5.6261  -11.1406    4.4820 C.3         1 NHT       0.1369
      2 C2          6.3781  -12.4914    4.5498 C.3         1 NHT       0.0547
      3 C3          6.8481  -13.0000    3.1592 C.3         1 NHT       0.0928
      4 C4          7.4073  -11.8631    2.2563 C.3         1 NHT       0.1098
      5 C5          6.5204  -10.5783    2.2575 C.3         1 NHT       0.1116
      6 C6          5.2198  -10.5664    1.3846 C.3         1 NHT       0.0730
      7 C7          7.2213  -11.2722    6.3549 C.2         1 NHT       0.1594
      8 C10         8.4087   -8.6513    7.8160 C.3         1 NHT      -0.0438
      9 N2          7.4260  -12.2692    5.4791 N.2         1 NHT      -0.3555
     10 O3          5.7633  -13.6540    2.4943 O.3         1 NHT      -0.3886
     11 O4          8.7260  -11.5337    2.7075 O.3         1 NHT      -0.3866
     12 O5          6.2627  -10.1750    3.6199 O.3         1 NHT      -0.3538
     13 N1          8.1233  -11.0553    7.3383 N.pl3       1 NHT      -0.2802
     14 O6          4.8308  -11.8322    0.8689 O.3         1 NHT      -0.3924
     15 S1          5.7119  -10.4402    6.1406 S.3         1 NHT       0.0009
     16 C9          8.0482  -10.0521    8.3571 C.3         1 NHT       0.0329
     17 H1          4.5807  -11.2840    4.1999 H           1 NHT       0.0757
     18 H2          5.7265  -13.2506    5.0013 H           1 NHT       0.0398
     19 H3          7.6216  -13.7623    3.2963 H           1 NHT       0.0626
     20 H4          7.5221  -12.2313    1.2313 H           1 NHT       0.0646
     21 H5          7.1550   -9.7823    1.8587 H           1 NHT       0.0646
     22 H6          5.3434   -9.8896    0.5329 H           1 NHT       0.0584
     23 H7          4.3787  -10.1891    1.9630 H           1 NHT       0.0584
     24 H8          8.3694   -7.9222    8.6253 H           1 NHT       0.0250
     25 H9          7.7088   -8.3522    7.0355 H           1 NHT       0.0250
     26 H10         9.4164   -8.6513    7.4037 H           1 NHT       0.0250
     27 H11         5.5589  -14.4443    3.0350 H           1 NHT       0.2099
     28 H12         8.6138  -11.1927    3.6210 H           1 NHT       0.2100
     29 H13         8.8751  -11.6663    7.3800 H           1 NHT       0.1939
     30 H14         5.1135  -11.8555   -0.0697 H           1 NHT       0.2095
     31 H15         7.0536  -10.0314    8.8090 H           1 NHT       0.0531
     32 H16         8.7583  -10.3102    9.1458 H           1 NHT       0.0531
@<TRIPOS>BOND
     1     1     2   1
     2     1    12   1
     3    15     1   1
     4     2     3   1
     5     9     2   1
     6     3     4   1
     7     3    10   1
     8     5     4   1
     9     4    11   1
    10     5     6   1
    11    12     5   1
    12     6    14   1
    13     7     9   2
    14    13     7   1
    15     7    15   1
    16    16     8   1
    17    13    16   1
    18     1    17   1
    19     2    18   1
    20     3    19   1
    21     4    20   1
    22     5    21   1
    23     6    22   1
    24     6    23   1
    25     8    24   1
    26     8    25   1
    27     8    26   1
    28    10    27   1
    29    11    28   1
    30    13    29   1
    31    14    30   1
    32    16    31   1
    33    16    32   1
@<TRIPOS>SUBSTRUCTURE
     1  NHT      1

