@<TRIPOS>MOLECULE
2vvn_ligand_044
    32    33
SMALL
GAST_HUCK
****
This file was generated by PARSER (from files_GN.cpp)

@<TRIPOS>ATOM
      1 C1          8.1173  -10.2776    5.2151 C.3         1 NHT       0.1369
      2 C2          7.2646  -11.5245    4.8569 C.3         1 NHT       0.0547
      3 C3          5.8518  -11.4892    5.5177 C.3         1 NHT       0.0928
      4 C4          5.9661  -10.9371    6.9616 C.3         1 NHT       0.1098
      5 C5          6.5495   -9.4880    6.9212 C.3         1 NHT       0.1116
      6 C6          7.3732   -9.1529    8.1910 C.3         1 NHT       0.0730
      7 C7          7.8499  -10.6409    2.7496 C.2         1 NHT       0.1594
      8 C10         5.4304  -10.9761    0.7830 C.3         1 NHT      -0.0438
      9 N2          7.1433  -11.5500    3.4478 N.2         1 NHT      -0.3555
     10 O3          5.2391  -12.7740    5.5125 O.3         1 NHT      -0.3886
     11 O4          4.7012  -10.9341    7.6305 O.3         1 NHT      -0.3866
     12 O5          7.3189   -9.2002    5.7317 O.3         1 NHT      -0.3538
     13 N1          7.7649  -10.4949    1.4110 N.pl3       1 NHT      -0.2802
     14 O6          6.5215   -8.8129    9.2830 O.3         1 NHT      -0.3924
     15 S1          8.9012   -9.6587    3.7083 S.3         1 NHT       0.0009
     16 C9          6.9273  -11.2960    0.5790 C.3         1 NHT       0.0329
     17 H1          8.8827  -10.5416    5.9429 H           1 NHT       0.0757
     18 H2          7.7896  -12.4285    5.1568 H           1 NHT       0.0398
     19 H3          5.1907  -10.8162    4.9546 H           1 NHT       0.0626
     20 H4          6.6423  -11.5951    7.5169 H           1 NHT       0.0646
     21 H5          5.7121   -8.7851    6.8797 H           1 NHT       0.0646
     22 H6          8.0358   -8.3115    7.9882 H           1 NHT       0.0584
     23 H7          7.9817  -10.0145    8.4779 H           1 NHT       0.0584
     24 H8          4.8149  -11.6812    0.2205 H           1 NHT       0.0250
     25 H9          5.2180   -9.9672    0.4227 H           1 NHT       0.0250
     26 H10         5.1654  -11.0465    1.8384 H           1 NHT       0.0250
     27 H11         5.0922  -12.9792    4.5581 H           1 NHT       0.2099
     28 H12         4.2350  -11.7388    7.3423 H           1 NHT       0.2100
     29 H13         8.2729   -9.7848    0.9927 H           1 NHT       0.1939
     30 H14         6.2076   -9.6716    9.6383 H           1 NHT       0.2095
     31 H15         7.1895  -11.0982   -0.4598 H           1 NHT       0.0531
     32 H16         7.1096  -12.3597    0.7602 H           1 NHT       0.0531
@<TRIPOS>BOND
     1     1     2   1
     2     1    12   1
     3    15     1   1
     4     2     3   1
     5     9     2   1
     6     3     4   1
     7     3    10   1
     8     5     4   1
     9     4    11   1
    10     5     6   1
    11    12     5   1
    12     6    14   1
    13     7     9   2
    14    13     7   1
    15     7    15   1
    16    16     8   1
    17    13    16   1
    18     1    17   1
    19     2    18   1
    20     3    19   1
    21     4    20   1
    22     5    21   1
    23     6    22   1
    24     6    23   1
    25     8    24   1
    26     8    25   1
    27     8    26   1
    28    10    27   1
    29    11    28   1
    30    13    29   1
    31    14    30   1
    32    16    31   1
    33    16    32   1
@<TRIPOS>SUBSTRUCTURE
     1  NHT      1

