@<TRIPOS>MOLECULE
2vvn_ligand_032
    32    33
SMALL
GAST_HUCK
****
This file was generated by PARSER (from files_GN.cpp)

@<TRIPOS>ATOM
      1 C1          5.3425  -15.8455    0.2078 C.3         1 NHT       0.1369
      2 C2          6.8288  -15.4848    0.4873 C.3         1 NHT       0.0547
      3 C3          7.7791  -15.9375   -0.6577 C.3         1 NHT       0.0928
      4 C4          7.2145  -15.6057   -2.0705 C.3         1 NHT       0.1098
      5 C5          5.7119  -16.0302   -2.2287 C.3         1 NHT       0.1116
      6 C6          5.4837  -17.0575   -3.3692 C.3         1 NHT       0.0730
      7 C7          5.7529  -13.3881    0.6227 C.2         1 NHT       0.1594
      8 C10         3.9901  -11.0354    2.1276 C.3         1 NHT      -0.0438
      9 N2          6.8926  -14.0828    0.6902 N.2         1 NHT      -0.3555
     10 O3          7.9807  -17.3482   -0.5424 O.3         1 NHT      -0.3886
     11 O4          7.3806  -14.2144   -2.3473 O.3         1 NHT      -0.3866
     12 O5          5.1520  -16.5885   -1.0177 O.3         1 NHT      -0.3538
     13 N1          5.8008  -12.0453    0.7953 N.pl3       1 NHT      -0.2802
     14 O6          6.3712  -18.1692   -3.2936 O.3         1 NHT      -0.3924
     15 S1          4.3439  -14.3377    0.2716 S.3         1 NHT       0.0009
     16 C9          4.7030  -11.1327    0.7651 C.3         1 NHT       0.0329
     17 H1          4.9791  -16.4877    1.0146 H           1 NHT       0.0757
     18 H2          7.1563  -15.9503    1.4239 H           1 NHT       0.0398
     19 H3          8.7587  -15.4659   -0.5275 H           1 NHT       0.0626
     20 H4          7.8478  -16.1139   -2.8024 H           1 NHT       0.0646
     21 H5          5.1189  -15.1470   -2.4823 H           1 NHT       0.0646
     22 H6          5.6272  -16.5709   -4.3354 H           1 NHT       0.0584
     23 H7          4.4625  -17.4366   -3.3296 H           1 NHT       0.0584
     24 H8          3.1751  -10.3159    2.0567 H           1 NHT       0.0250
     25 H9          4.6883  -10.7018    2.8959 H           1 NHT       0.0250
     26 H10         3.5793  -12.0039    2.4143 H           1 NHT       0.0250
     27 H11         8.6773  -17.5655   -1.1960 H           1 NHT       0.2099
     28 H12         6.8195  -13.7486   -1.6950 H           1 NHT       0.2100
     29 H13         6.6823  -11.6672    0.9498 H           1 NHT       0.1939
     30 H14         6.1962  -18.5921   -2.4296 H           1 NHT       0.2095
     31 H15         5.1021  -10.1491    0.5122 H           1 NHT       0.0531
     32 H16         3.9903  -11.4042   -0.0169 H           1 NHT       0.0531
@<TRIPOS>BOND
     1     1     2   1
     2     1    12   1
     3    15     1   1
     4     2     3   1
     5     9     2   1
     6     3     4   1
     7     3    10   1
     8     5     4   1
     9     4    11   1
    10     5     6   1
    11    12     5   1
    12     6    14   1
    13     7     9   2
    14    13     7   1
    15     7    15   1
    16    16     8   1
    17    13    16   1
    18     1    17   1
    19     2    18   1
    20     3    19   1
    21     4    20   1
    22     5    21   1
    23     6    22   1
    24     6    23   1
    25     8    24   1
    26     8    25   1
    27     8    26   1
    28    10    27   1
    29    11    28   1
    30    13    29   1
    31    14    30   1
    32    16    31   1
    33    16    32   1
@<TRIPOS>SUBSTRUCTURE
     1  NHT      1

