@<TRIPOS>MOLECULE
2vvn_ligand_008
    32    33
SMALL
GAST_HUCK
****
This file was generated by PARSER (from files_GN.cpp)

@<TRIPOS>ATOM
      1 C1          5.6242  -17.6104   -1.6953 C.3         1 NHT       0.1369
      2 C2          5.2752  -17.4221   -0.1917 C.3         1 NHT       0.0547
      3 C3          5.2005  -15.9239    0.2266 C.3         1 NHT       0.0928
      4 C4          6.3396  -15.1361   -0.4635 C.3         1 NHT       0.1098
      5 C5          6.1898  -15.2452   -2.0207 C.3         1 NHT       0.1116
      6 C6          7.5421  -15.1521   -2.7909 C.3         1 NHT       0.0730
      7 C7          3.5350  -18.7863   -0.9798 C.2         1 NHT       0.1594
      8 C10         2.0573  -19.9737    1.4784 C.3         1 NHT      -0.0438
      9 N2          4.0428  -18.0738    0.0337 N.2         1 NHT      -0.3555
     10 O3          5.2940  -15.7998    1.6462 O.3         1 NHT      -0.3886
     11 O4          6.3592  -13.7728   -0.0415 O.3         1 NHT      -0.3866
     12 O5          5.4347  -16.4050   -2.4593 O.3         1 NHT      -0.3538
     13 N1          2.3556  -19.4381   -0.9322 N.pl3       1 NHT      -0.2802
     14 O6          7.5611  -14.0384   -3.6945 O.3         1 NHT      -0.3924
     15 S1          4.5231  -18.8581   -2.3936 S.3         1 NHT       0.0009
     16 C9          1.4486  -19.4232    0.1680 C.3         1 NHT       0.0329
     17 H1          6.6541  -17.9594   -1.8176 H           1 NHT       0.0757
     18 H2          6.0338  -17.9262    0.4139 H           1 NHT       0.0398
     19 H3          4.2410  -15.4936   -0.0837 H           1 NHT       0.0626
     20 H4          7.2903  -15.5815   -0.1464 H           1 NHT       0.0646
     21 H5          5.5707  -14.4021   -2.3389 H           1 NHT       0.0646
     22 H6          7.7166  -16.0639   -3.3853 H           1 NHT       0.0584
     23 H7          8.3975  -15.0360   -2.1023 H           1 NHT       0.0584
     24 H8          1.2977  -19.9681    2.2665 H           1 NHT       0.0250
     25 H9          2.8972  -19.3555    1.8049 H           1 NHT       0.0250
     26 H10         2.4058  -21.0015    1.3305 H           1 NHT       0.0250
     27 H11         4.4153  -16.0758    1.9810 H           1 NHT       0.2099
     28 H12         5.6153  -13.3344   -0.5077 H           1 NHT       0.2100
     29 H13         2.0836  -19.9134   -1.7328 H           1 NHT       0.1939
     30 H14         7.3271  -13.2650   -3.1337 H           1 NHT       0.2095
     31 H15         1.0763  -18.4098    0.3275 H           1 NHT       0.0531
     32 H16         0.5956  -20.0448   -0.0999 H           1 NHT       0.0531
@<TRIPOS>BOND
     1     1     2   1
     2     1    12   1
     3    15     1   1
     4     2     3   1
     5     9     2   1
     6     3     4   1
     7     3    10   1
     8     5     4   1
     9     4    11   1
    10     5     6   1
    11    12     5   1
    12     6    14   1
    13     7     9   2
    14    13     7   1
    15     7    15   1
    16    16     8   1
    17    13    16   1
    18     1    17   1
    19     2    18   1
    20     3    19   1
    21     4    20   1
    22     5    21   1
    23     6    22   1
    24     6    23   1
    25     8    24   1
    26     8    25   1
    27     8    26   1
    28    10    27   1
    29    11    28   1
    30    13    29   1
    31    14    30   1
    32    16    31   1
    33    16    32   1
@<TRIPOS>SUBSTRUCTURE
     1  NHT      1

