@<TRIPOS>MOLECULE
2vvn_ligand_029
    32    33
SMALL
GAST_HUCK
****
This file was generated by PARSER (from files_GN.cpp)

@<TRIPOS>ATOM
      1 C1          5.7643  -11.7159    0.9141 C.3         1 NHT       0.1369
      2 C2          5.0441  -11.9169    2.2708 C.3         1 NHT       0.0547
      3 C3          4.7278  -13.4062    2.5872 C.3         1 NHT       0.0928
      4 C4          5.8960  -14.3593    2.1988 C.3         1 NHT       0.1098
      5 C5          6.4282  -14.0873    0.7599 C.3         1 NHT       0.1116
      6 C6          5.5266  -14.5901   -0.4038 C.3         1 NHT       0.0730
      7 C7          6.8011  -10.4621    2.7347 C.2         1 NHT       0.1594
      8 C10         8.4868  -11.3871    5.2418 C.3         1 NHT      -0.0438
      9 N2          5.9069  -11.3337    3.2245 N.2         1 NHT      -0.3555
     10 O3          3.5169  -13.7697    1.9238 O.3         1 NHT      -0.3886
     11 O4          6.9574  -14.1709    3.1359 O.3         1 NHT      -0.3866
     12 O5          6.7793  -12.6987    0.6290 O.3         1 NHT      -0.3538
     13 N1          7.7359   -9.8215    3.4698 N.pl3       1 NHT      -0.2802
     14 O6          5.4419  -16.0139   -0.4156 O.3         1 NHT      -0.3924
     15 S1          6.6512  -10.1536    1.0388 S.3         1 NHT       0.0009
     16 C9          7.9140   -9.9996    4.8755 C.3         1 NHT       0.0329
     17 H1          5.0442  -11.6561    0.0970 H           1 NHT       0.0757
     18 H2          4.1136  -11.3404    2.2926 H           1 NHT       0.0398
     19 H3          4.5298  -13.5101    3.6563 H           1 NHT       0.0626
     20 H4          5.5643  -15.3980    2.2862 H           1 NHT       0.0646
     21 H5          7.3723  -14.6303    0.6559 H           1 NHT       0.0646
     22 H6          5.9497  -14.2686   -1.3577 H           1 NHT       0.0584
     23 H7          4.5184  -14.1852   -0.3328 H           1 NHT       0.0584
     24 H8          8.6013  -11.4662    6.3253 H           1 NHT       0.0250
     25 H9          9.4587  -11.5380    4.7714 H           1 NHT       0.0250
     26 H10         7.8138  -12.1814    4.9128 H           1 NHT       0.0250
     27 H11         3.3582  -14.7108    2.1471 H           1 NHT       0.2099
     28 H12         7.6626  -14.8008    2.8804 H           1 NHT       0.2100
     29 H13         8.2947   -9.1720    3.0171 H           1 NHT       0.1939
     30 H14         6.3573  -16.3234   -0.5896 H           1 NHT       0.2095
     31 H15         8.6034   -9.2314    5.2302 H           1 NHT       0.0531
     32 H16         6.9579   -9.8442    5.3846 H           1 NHT       0.0531
@<TRIPOS>BOND
     1     1     2   1
     2     1    12   1
     3    15     1   1
     4     2     3   1
     5     9     2   1
     6     3     4   1
     7     3    10   1
     8     5     4   1
     9     4    11   1
    10     5     6   1
    11    12     5   1
    12     6    14   1
    13     7     9   2
    14    13     7   1
    15     7    15   1
    16    16     8   1
    17    13    16   1
    18     1    17   1
    19     2    18   1
    20     3    19   1
    21     4    20   1
    22     5    21   1
    23     6    22   1
    24     6    23   1
    25     8    24   1
    26     8    25   1
    27     8    26   1
    28    10    27   1
    29    11    28   1
    30    13    29   1
    31    14    30   1
    32    16    31   1
    33    16    32   1
@<TRIPOS>SUBSTRUCTURE
     1  NHT      1

