@<TRIPOS>MOLECULE
2vvn_ligand_019
    32    33
SMALL
GAST_HUCK
****
This file was generated by PARSER (from files_GN.cpp)

@<TRIPOS>ATOM
      1 C1          7.8907  -10.3336    3.2289 C.3         1 NHT       0.1369
      2 C2          8.0574  -11.8546    3.4787 C.3         1 NHT       0.0547
      3 C3          7.8718  -12.3045    4.9572 C.3         1 NHT       0.0928
      4 C4          6.7673  -11.5173    5.7057 C.3         1 NHT       0.1098
      5 C5          6.9033   -9.9801    5.4935 C.3         1 NHT       0.1116
      6 C6          8.0172   -9.2877    6.3494 C.3         1 NHT       0.0730
      7 C7          6.6505  -11.7554    1.6238 C.2         1 NHT       0.1594
      8 C10         3.6141  -13.2562    1.1564 C.3         1 NHT      -0.0438
      9 N2          7.1137  -12.4915    2.6413 N.2         1 NHT      -0.3555
     10 O3          9.1039  -12.2509    5.6737 O.3         1 NHT      -0.3886
     11 O4          5.4733  -11.9585    5.2865 O.3         1 NHT      -0.3866
     12 O5          6.9291   -9.6701    4.0829 O.3         1 NHT      -0.3538
     13 N1          5.7528  -12.1890    0.7089 N.pl3       1 NHT      -0.2802
     14 O6          9.1626   -8.8955    5.6007 O.3         1 NHT      -0.3924
     15 S1          7.2832  -10.1560    1.5378 S.3         1 NHT       0.0009
     16 C9          5.0822  -13.4478    0.7286 C.3         1 NHT       0.0329
     17 H1          8.8559   -9.8322    3.2851 H           1 NHT       0.0757
     18 H2          9.0427  -12.1775    3.1300 H           1 NHT       0.0398
     19 H3          7.5961  -13.3688    4.9534 H           1 NHT       0.0626
     20 H4          6.8301  -11.7438    6.7701 H           1 NHT       0.0646
     21 H5          5.9644   -9.5524    5.8529 H           1 NHT       0.0646
     22 H6          8.3582   -9.9409    7.1629 H           1 NHT       0.0584
     23 H7          7.6191   -8.3880    6.8147 H           1 NHT       0.0584
     24 H8          3.0790  -14.2064    1.0785 H           1 NHT       0.0250
     25 H9          3.1193  -12.5207    0.5194 H           1 NHT       0.0250
     26 H10         3.5693  -12.9156    2.1913 H           1 NHT       0.0250
     27 H11         9.3539  -11.3081    5.7205 H           1 NHT       0.2099
     28 H12         5.3808  -11.6835    4.3516 H           1 NHT       0.2100
     29 H13         5.5570  -11.5927   -0.0280 H           1 NHT       0.1939
     30 H14         9.7471   -8.4515    6.2530 H           1 NHT       0.2095
     31 H15         5.1171  -13.8704   -0.2819 H           1 NHT       0.0531
     32 H16         5.5539  -14.1657    1.4003 H           1 NHT       0.0531
@<TRIPOS>BOND
     1     1     2   1
     2     1    12   1
     3    15     1   1
     4     2     3   1
     5     9     2   1
     6     3     4   1
     7     3    10   1
     8     5     4   1
     9     4    11   1
    10     5     6   1
    11    12     5   1
    12     6    14   1
    13     7     9   2
    14    13     7   1
    15     7    15   1
    16    16     8   1
    17    13    16   1
    18     1    17   1
    19     2    18   1
    20     3    19   1
    21     4    20   1
    22     5    21   1
    23     6    22   1
    24     6    23   1
    25     8    24   1
    26     8    25   1
    27     8    26   1
    28    10    27   1
    29    11    28   1
    30    13    29   1
    31    14    30   1
    32    16    31   1
    33    16    32   1
@<TRIPOS>SUBSTRUCTURE
     1  NHT      1

