@<TRIPOS>MOLECULE
2vvn_ligand_020
    32    33
SMALL
GAST_HUCK
****
This file was generated by PARSER (from files_GN.cpp)

@<TRIPOS>ATOM
      1 C1          6.3886  -16.1118   -0.7284 C.3         1 NHT       0.1369
      2 C2          7.3261  -15.1217   -1.4723 C.3         1 NHT       0.0547
      3 C3          7.1546  -15.1741   -3.0189 C.3         1 NHT       0.0928
      4 C4          6.9017  -16.6280   -3.4993 C.3         1 NHT       0.1098
      5 C5          5.6373  -17.2198   -2.7821 C.3         1 NHT       0.1116
      6 C6          5.7381  -18.7483   -2.5339 C.3         1 NHT       0.0730
      7 C7          6.2202  -13.7437    0.0685 C.2         1 NHT       0.1594
      8 C10         4.7764  -10.7807    1.8548 C.3         1 NHT      -0.0438
      9 N2          7.0314  -13.8255   -0.9913 N.2         1 NHT      -0.3555
     10 O3          8.2890  -14.5984   -3.6656 O.3         1 NHT      -0.3886
     11 O4          6.7605  -16.6675   -4.9218 O.3         1 NHT      -0.3866
     12 O5          5.2851  -16.5289   -1.5557 O.3         1 NHT      -0.3538
     13 N1          5.8823  -12.5266    0.5476 N.pl3       1 NHT      -0.2802
     14 O6          4.5914  -19.2379   -1.8432 O.3         1 NHT      -0.3924
     15 S1          5.7337  -15.2717    0.7261 S.3         1 NHT       0.0009
     16 C9          5.0323  -12.2877    1.6673 C.3         1 NHT       0.0329
     17 H1          6.9401  -16.9914   -0.3879 H           1 NHT       0.0757
     18 H2          8.3634  -15.3484   -1.2095 H           1 NHT       0.0398
     19 H3          6.2868  -14.5739   -3.3055 H           1 NHT       0.0626
     20 H4          7.7856  -17.2226   -3.2511 H           1 NHT       0.0646
     21 H5          4.7783  -17.0685   -3.4415 H           1 NHT       0.0646
     22 H6          6.6246  -18.9856   -1.9425 H           1 NHT       0.0584
     23 H7          5.8088  -19.2719   -3.4892 H           1 NHT       0.0584
     24 H8          4.0809  -10.6278    2.6816 H           1 NHT       0.0250
     25 H9          4.3443  -10.3496    0.9481 H           1 NHT       0.0250
     26 H10         5.7115  -10.2654    2.0824 H           1 NHT       0.0250
     27 H11         9.0724  -15.0670   -3.3062 H           1 NHT       0.2099
     28 H12         6.0383  -16.0364   -5.1290 H           1 NHT       0.2100
     29 H13         6.2244  -11.7581    0.0651 H           1 NHT       0.1939
     30 H14         4.6081  -18.7966   -0.9671 H           1 NHT       0.2095
     31 H15         4.0732  -12.7907    1.5155 H           1 NHT       0.0531
     32 H16         5.5001  -12.6870    2.5712 H           1 NHT       0.0531
@<TRIPOS>BOND
     1     1     2   1
     2     1    12   1
     3    15     1   1
     4     2     3   1
     5     9     2   1
     6     3     4   1
     7     3    10   1
     8     5     4   1
     9     4    11   1
    10     5     6   1
    11    12     5   1
    12     6    14   1
    13     7     9   2
    14    13     7   1
    15     7    15   1
    16    16     8   1
    17    13    16   1
    18     1    17   1
    19     2    18   1
    20     3    19   1
    21     4    20   1
    22     5    21   1
    23     6    22   1
    24     6    23   1
    25     8    24   1
    26     8    25   1
    27     8    26   1
    28    10    27   1
    29    11    28   1
    30    13    29   1
    31    14    30   1
    32    16    31   1
    33    16    32   1
@<TRIPOS>SUBSTRUCTURE
     1  NHT      1

