@<TRIPOS>MOLECULE
2vvn_ligand_024
    32    33
SMALL
GAST_HUCK
****
This file was generated by PARSER (from files_GN.cpp)

@<TRIPOS>ATOM
      1 C1          5.4417  -11.9948    3.6266 C.3         1 NHT       0.1369
      2 C2          4.6413  -12.8830    2.6338 C.3         1 NHT       0.0547
      3 C3          5.0254  -12.6161    1.1473 C.3         1 NHT       0.0928
      4 C4          6.5620  -12.5400    0.9305 C.3         1 NHT       0.1098
      5 C5          7.2778  -11.6521    2.0072 C.3         1 NHT       0.1116
      6 C6          8.0645  -10.4594    1.3947 C.3         1 NHT       0.0730
      7 C7          5.6517  -14.4710    4.0455 C.2         1 NHT       0.1594
      8 C10         6.7823  -17.7988    3.5866 C.3         1 NHT      -0.0438
      9 N2          4.8795  -14.2382    2.9785 N.2         1 NHT      -0.3555
     10 O3          4.4277  -11.3862    0.7384 O.3         1 NHT      -0.3886
     11 O4          7.1057  -13.8614    0.9207 O.3         1 NHT      -0.3866
     12 O5          6.3754  -11.0979    2.9927 O.3         1 NHT      -0.3538
     13 N1          5.9639  -15.6952    4.5118 N.pl3       1 NHT      -0.2802
     14 O6          7.2952   -9.2463    1.3955 O.3         1 NHT      -0.3924
     15 S1          6.2603  -13.0578    4.8389 S.3         1 NHT       0.0009
     16 C9          5.5507  -16.9447    3.9652 C.3         1 NHT       0.0329
     17 H1          4.7340  -11.3623    4.1771 H           1 NHT       0.0757
     18 H2          3.5664  -12.7061    2.7544 H           1 NHT       0.0398
     19 H3          4.5896  -13.3973    0.5135 H           1 NHT       0.0626
     20 H4          6.7422  -12.1473   -0.0725 H           1 NHT       0.0646
     21 H5          8.0182  -12.2609    2.5349 H           1 NHT       0.0646
     22 H6          8.3845  -10.6861    0.3678 H           1 NHT       0.0584
     23 H7          8.9808  -10.2823    1.9770 H           1 NHT       0.0584
     24 H8          6.4536  -18.7700    3.2071 H           1 NHT       0.0250
     25 H9          7.4195  -17.9540    4.4651 H           1 NHT       0.0250
     26 H10         7.3591  -17.2980    2.8085 H           1 NHT       0.0250
     27 H11         4.5238  -11.4013   -0.2304 H           1 NHT       0.2099
     28 H12         6.9971  -14.2071    1.8309 H           1 NHT       0.2100
     29 H13         6.5062  -15.7219    5.3107 H           1 NHT       0.1939
     30 H14         7.3129   -8.9600    2.3357 H           1 NHT       0.2095
     31 H15         4.9699  -17.4796    4.7181 H           1 NHT       0.0531
     32 H16         4.9218  -16.8201    3.0809 H           1 NHT       0.0531
@<TRIPOS>BOND
     1     1     2   1
     2     1    12   1
     3    15     1   1
     4     2     3   1
     5     9     2   1
     6     3     4   1
     7     3    10   1
     8     5     4   1
     9     4    11   1
    10     5     6   1
    11    12     5   1
    12     6    14   1
    13     7     9   2
    14    13     7   1
    15     7    15   1
    16    16     8   1
    17    13    16   1
    18     1    17   1
    19     2    18   1
    20     3    19   1
    21     4    20   1
    22     5    21   1
    23     6    22   1
    24     6    23   1
    25     8    24   1
    26     8    25   1
    27     8    26   1
    28    10    27   1
    29    11    28   1
    30    13    29   1
    31    14    30   1
    32    16    31   1
    33    16    32   1
@<TRIPOS>SUBSTRUCTURE
     1  NHT      1

