@<TRIPOS>MOLECULE
2vvn_ligand_016
    32    33
SMALL
GAST_HUCK
****
This file was generated by PARSER (from files_GN.cpp)

@<TRIPOS>ATOM
      1 C1          8.3361  -16.5176   -0.7229 C.3         1 NHT       0.1369
      2 C2          8.1202  -17.1402   -2.1250 C.3         1 NHT       0.0547
      3 C3          6.8002  -16.6692   -2.7987 C.3         1 NHT       0.0928
      4 C4          6.5578  -15.1437   -2.6359 C.3         1 NHT       0.1098
      5 C5          6.7710  -14.6474   -1.1732 C.3         1 NHT       0.1116
      6 C6          5.5886  -14.9152   -0.1981 C.3         1 NHT       0.0730
      7 C7         10.3496  -16.4778   -2.1182 C.2         1 NHT       0.1594
      8 C10        11.3089  -14.6256   -4.5904 C.3         1 NHT      -0.0438
      9 N2          9.2721  -16.7806   -2.8615 N.2         1 NHT      -0.3555
     10 O3          5.6953  -17.4114   -2.2805 O.3         1 NHT      -0.3886
     11 O4          7.4294  -14.4227   -3.5141 O.3         1 NHT      -0.3866
     12 O5          8.0366  -15.1062   -0.6545 O.3         1 NHT      -0.3538
     13 N1         11.5496  -16.1016   -2.6119 N.pl3       1 NHT      -0.2802
     14 O6          5.3102  -13.7594    0.5886 O.3         1 NHT      -0.3924
     15 S1         10.1078  -16.6461   -0.4124 S.3         1 NHT       0.0009
     16 C9         11.8572  -15.9449   -3.9976 C.3         1 NHT       0.0329
     17 H1          7.7846  -17.0629    0.0462 H           1 NHT       0.0757
     18 H2          8.1079  -18.2343   -2.0531 H           1 NHT       0.0398
     19 H3          6.8382  -16.9050   -3.8661 H           1 NHT       0.0626
     20 H4          5.5404  -14.9152   -2.9549 H           1 NHT       0.0646
     21 H5          6.8685  -13.5603   -1.2398 H           1 NHT       0.0646
     22 H6          5.8124  -15.7438    0.4731 H           1 NHT       0.0584
     23 H7          4.6779  -15.1593   -0.7518 H           1 NHT       0.0584
     24 H8         11.5943  -14.5503   -5.6425 H           1 NHT       0.0250
     25 H9         11.7229  -13.7688   -4.0499 H           1 NHT       0.0250
     26 H10        10.2176  -14.5951   -4.5236 H           1 NHT       0.0250
     27 H11         5.7379  -17.3089   -1.3076 H           1 NHT       0.2099
     28 H12         8.3286  -14.5459   -3.1459 H           1 NHT       0.2100
     29 H13        12.2654  -15.9497   -1.9737 H           1 NHT       0.1939
     30 H14         4.9887  -13.0993   -0.0653 H           1 NHT       0.2095
     31 H15        12.9449  -15.9359   -4.0950 H           1 NHT       0.0531
     32 H16        11.4776  -16.7994   -4.5695 H           1 NHT       0.0531
@<TRIPOS>BOND
     1     1     2   1
     2     1    12   1
     3    15     1   1
     4     2     3   1
     5     9     2   1
     6     3     4   1
     7     3    10   1
     8     5     4   1
     9     4    11   1
    10     5     6   1
    11    12     5   1
    12     6    14   1
    13     7     9   2
    14    13     7   1
    15     7    15   1
    16    16     8   1
    17    13    16   1
    18     1    17   1
    19     2    18   1
    20     3    19   1
    21     4    20   1
    22     5    21   1
    23     6    22   1
    24     6    23   1
    25     8    24   1
    26     8    25   1
    27     8    26   1
    28    10    27   1
    29    11    28   1
    30    13    29   1
    31    14    30   1
    32    16    31   1
    33    16    32   1
@<TRIPOS>SUBSTRUCTURE
     1  NHT      1

