@<TRIPOS>MOLECULE
2vvn_ligand_030
    32    33
SMALL
GAST_HUCK
****
This file was generated by PARSER (from files_GN.cpp)

@<TRIPOS>ATOM
      1 C1          5.1775  -14.7727    3.1368 C.3         1 NHT       0.1369
      2 C2          5.6145  -14.9071    1.6519 C.3         1 NHT       0.0547
      3 C3          6.4669  -13.6976    1.1761 C.3         1 NHT       0.0928
      4 C4          5.8920  -12.3782    1.7534 C.3         1 NHT       0.1098
      5 C5          5.9355  -12.4325    3.3139 C.3         1 NHT       0.1116
      6 C6          4.8263  -11.5845    3.9855 C.3         1 NHT       0.0730
      7 C7          6.3793  -16.9148    2.5927 C.2         1 NHT       0.1594
      8 C10         5.9591  -19.9203    3.7214 C.3         1 NHT      -0.0438
      9 N2          6.3433  -16.1107    1.5235 N.2         1 NHT      -0.3555
     10 O3          6.5093  -13.6665   -0.2483 O.3         1 NHT      -0.3886
     11 O4          6.6225  -11.2548    1.2591 O.3         1 NHT      -0.3866
     12 O5          5.9332  -13.7783    3.8535 O.3         1 NHT      -0.3538
     13 N1          7.0893  -18.0656    2.5230 N.pl3       1 NHT      -0.2802
     14 O6          5.0122  -11.5419    5.3979 O.3         1 NHT      -0.3924
     15 S1          5.4572  -16.3546    3.9535 S.3         1 NHT       0.0009
     16 C9          7.2226  -19.0458    3.5532 C.3         1 NHT       0.0329
     17 H1          4.1112  -14.5354    3.1971 H           1 NHT       0.0757
     18 H2          4.7230  -14.9862    1.0202 H           1 NHT       0.0398
     19 H3          7.4924  -13.8158    1.5320 H           1 NHT       0.0626
     20 H4          4.8575  -12.2714    1.4129 H           1 NHT       0.0646
     21 H5          6.8906  -12.0044    3.6312 H           1 NHT       0.0646
     22 H6          3.8406  -12.0039    3.7767 H           1 NHT       0.0584
     23 H7          4.8556  -10.5571    3.6053 H           1 NHT       0.0584
     24 H8          6.1450  -20.6986    4.4631 H           1 NHT       0.0250
     25 H9          5.7043  -20.3957    2.7727 H           1 NHT       0.0250
     26 H10         5.1113  -19.3217    4.0545 H           1 NHT       0.0250
     27 H11         5.7010  -13.1892   -0.5302 H           1 NHT       0.2099
     28 H12         6.4755  -11.2821    0.2897 H           1 NHT       0.2100
     29 H13         7.5813  -18.2201    1.7015 H           1 NHT       0.1939
     30 H14         5.0190  -12.4808    5.6848 H           1 NHT       0.2095
     31 H15         8.0519  -19.6979    3.2826 H           1 NHT       0.0531
     32 H16         7.4787  -18.5588    4.4957 H           1 NHT       0.0531
@<TRIPOS>BOND
     1     1     2   1
     2     1    12   1
     3    15     1   1
     4     2     3   1
     5     9     2   1
     6     3     4   1
     7     3    10   1
     8     5     4   1
     9     4    11   1
    10     5     6   1
    11    12     5   1
    12     6    14   1
    13     7     9   2
    14    13     7   1
    15     7    15   1
    16    16     8   1
    17    13    16   1
    18     1    17   1
    19     2    18   1
    20     3    19   1
    21     4    20   1
    22     5    21   1
    23     6    22   1
    24     6    23   1
    25     8    24   1
    26     8    25   1
    27     8    26   1
    28    10    27   1
    29    11    28   1
    30    13    29   1
    31    14    30   1
    32    16    31   1
    33    16    32   1
@<TRIPOS>SUBSTRUCTURE
     1  NHT      1

