@<TRIPOS>MOLECULE
2vvn_ligand_014
    32    33
SMALL
GAST_HUCK
****
This file was generated by PARSER (from files_GN.cpp)

@<TRIPOS>ATOM
      1 C1          6.7152  -17.6971   -2.2611 C.3         1 NHT       0.1369
      2 C2          6.5019  -16.5384   -1.2417 C.3         1 NHT       0.0547
      3 C3          6.4799  -15.1363   -1.9116 C.3         1 NHT       0.0928
      4 C4          7.5898  -15.0353   -2.9821 C.3         1 NHT       0.1098
      5 C5          7.4067  -16.1591   -4.0566 C.3         1 NHT       0.1116
      6 C6          8.7267  -16.6658   -4.7041 C.3         1 NHT       0.0730
      7 C7          4.6148  -17.8830   -0.8841 C.2         1 NHT       0.1594
      8 C10         1.2578  -19.1346    0.2427 C.3         1 NHT      -0.0438
      9 N2          5.2760  -16.7610   -0.5781 N.2         1 NHT      -0.3555
     10 O3          6.6631  -14.1507   -0.8855 O.3         1 NHT      -0.3886
     11 O4          7.5913  -13.7656   -3.6163 O.3         1 NHT      -0.3866
     12 O5          6.5836  -17.2682   -3.6265 O.3         1 NHT      -0.3538
     13 N1          3.3913  -18.0754   -0.3487 N.pl3       1 NHT      -0.2802
     14 O6          9.8982  -16.4322   -3.9096 O.3         1 NHT      -0.3924
     15 S1          5.4546  -18.9548   -1.9671 S.3         1 NHT       0.0009
     16 C9          2.5526  -19.2023   -0.5859 C.3         1 NHT       0.0329
     17 H1          7.6982  -18.1590   -2.1254 H           1 NHT       0.0757
     18 H2          7.2973  -16.5801   -0.4928 H           1 NHT       0.0398
     19 H3          5.5014  -14.9627   -2.3879 H           1 NHT       0.0626
     20 H4          8.5435  -15.1476   -2.4698 H           1 NHT       0.0646
     21 H5          6.8298  -15.7411   -4.8833 H           1 NHT       0.0646
     22 H6          8.8795  -16.2012   -5.6905 H           1 NHT       0.0584
     23 H7          8.6632  -17.7485   -4.8678 H           1 NHT       0.0584
     24 H8          0.6398  -20.0053    0.0303 H           1 NHT       0.0250
     25 H9          0.6870  -18.2374   -0.0066 H           1 NHT       0.0250
     26 H10         1.4858  -19.1243    1.3101 H           1 NHT       0.0250
     27 H11         5.8680  -13.5549   -0.9315 H           1 NHT       0.2099
     28 H12         7.3654  -13.1149   -2.9067 H           1 NHT       0.2100
     29 H13         3.0556  -17.3776    0.2323 H           1 NHT       0.1939
     30 H14        10.1068  -15.4704   -4.0636 H           1 NHT       0.2095
     31 H15         2.2881  -19.2399   -1.6468 H           1 NHT       0.0531
     32 H16         3.0946  -20.1172   -0.3240 H           1 NHT       0.0531
@<TRIPOS>BOND
     1     1     2   1
     2     1    12   1
     3    15     1   1
     4     2     3   1
     5     9     2   1
     6     3     4   1
     7     3    10   1
     8     5     4   1
     9     4    11   1
    10     5     6   1
    11    12     5   1
    12     6    14   1
    13     7     9   2
    14    13     7   1
    15     7    15   1
    16    16     8   1
    17    13    16   1
    18     1    17   1
    19     2    18   1
    20     3    19   1
    21     4    20   1
    22     5    21   1
    23     6    22   1
    24     6    23   1
    25     8    24   1
    26     8    25   1
    27     8    26   1
    28    10    27   1
    29    11    28   1
    30    13    29   1
    31    14    30   1
    32    16    31   1
    33    16    32   1
@<TRIPOS>SUBSTRUCTURE
     1  NHT      1

