@<TRIPOS>MOLECULE
2vvn_ligand_034
    32    33
SMALL
GAST_HUCK
****
This file was generated by PARSER (from files_GN.cpp)

@<TRIPOS>ATOM
      1 C1          6.1452  -10.8060    4.0559 C.3         1 NHT       0.1369
      2 C2          7.0924  -10.5793    2.8461 C.3         1 NHT       0.0547
      3 C3          8.4771  -11.2610    3.0270 C.3         1 NHT       0.0928
      4 C4          8.9731  -11.1497    4.4947 C.3         1 NHT       0.1098
      5 C5          7.9085  -11.7128    5.5020 C.3         1 NHT       0.1116
      6 C6          7.8454  -11.0072    6.8966 C.3         1 NHT       0.0730
      7 C7          5.2293  -11.5912    1.8583 C.2         1 NHT       0.1594
      8 C10         2.2241  -11.5822    0.7583 C.3         1 NHT      -0.0438
      9 N2          6.4678  -11.1081    1.7007 N.2         1 NHT      -0.3555
     10 O3          9.4163  -10.6413    2.1412 O.3         1 NHT      -0.3886
     11 O4         10.2098  -11.8557    4.6385 O.3         1 NHT      -0.3866
     12 O5          6.5877  -11.8502    4.9341 O.3         1 NHT      -0.3538
     13 N1          4.6012  -12.1720    0.8190 N.pl3       1 NHT      -0.2802
     14 O6          7.9443   -9.5839    6.8627 O.3         1 NHT      -0.3924
     15 S1          4.5558  -11.3422    3.4353 S.3         1 NHT       0.0009
     16 C9          3.2744  -12.7070    0.8563 C.3         1 NHT       0.0329
     17 H1          6.0145   -9.8900    4.6454 H           1 NHT       0.0757
     18 H2          7.2175   -9.4955    2.6933 H           1 NHT       0.0398
     19 H3          8.4255  -12.3214    2.7696 H           1 NHT       0.0626
     20 H4          9.1322  -10.0877    4.6931 H           1 NHT       0.0646
     21 H5          8.1780  -12.7440    5.7030 H           1 NHT       0.0646
     22 H6          8.6525  -11.3825    7.5249 H           1 NHT       0.0584
     23 H7          6.8968  -11.2460    7.3823 H           1 NHT       0.0584
     24 H8          1.2226  -12.0124    0.7703 H           1 NHT       0.0250
     25 H9          2.3502  -11.0355   -0.1820 H           1 NHT       0.0250
     26 H10         2.3156  -10.8815    1.5864 H           1 NHT       0.0250
     27 H11         9.0181  -10.7245    1.2450 H           1 NHT       0.2099
     28 H12        10.2805  -12.1010    5.5917 H           1 NHT       0.2100
     29 H13         5.0746  -12.2279   -0.0187 H           1 NHT       0.1939
     30 H14         8.8956   -9.4081    6.6762 H           1 NHT       0.2095
     31 H15         3.1706  -13.3762   -0.0028 H           1 NHT       0.0531
     32 H16         3.1174  -13.2972    1.7616 H           1 NHT       0.0531
@<TRIPOS>BOND
     1     1     2   1
     2     1    12   1
     3    15     1   1
     4     2     3   1
     5     9     2   1
     6     3     4   1
     7     3    10   1
     8     5     4   1
     9     4    11   1
    10     5     6   1
    11    12     5   1
    12     6    14   1
    13     7     9   2
    14    13     7   1
    15     7    15   1
    16    16     8   1
    17    13    16   1
    18     1    17   1
    19     2    18   1
    20     3    19   1
    21     4    20   1
    22     5    21   1
    23     6    22   1
    24     6    23   1
    25     8    24   1
    26     8    25   1
    27     8    26   1
    28    10    27   1
    29    11    28   1
    30    13    29   1
    31    14    30   1
    32    16    31   1
    33    16    32   1
@<TRIPOS>SUBSTRUCTURE
     1  NHT      1

