@<TRIPOS>MOLECULE
2vvn_ligand_012
    32    33
SMALL
GAST_HUCK
****
This file was generated by PARSER (from files_GN.cpp)

@<TRIPOS>ATOM
      1 C1          4.3623  -18.7920   -1.2142 C.3         1 NHT       0.1369
      2 C2          4.0085  -18.9328   -2.7264 C.3         1 NHT       0.0547
      3 C3          2.4760  -18.9557   -2.9807 C.3         1 NHT       0.0928
      4 C4          1.7412  -19.6781   -1.8195 C.3         1 NHT       0.1098
      5 C5          2.0151  -18.9115   -0.4845 C.3         1 NHT       0.1116
      6 C6          1.8285  -19.8213    0.7577 C.3         1 NHT       0.0730
      7 C7          5.4707  -17.0963   -2.6604 C.2         1 NHT       0.1594
      8 C10         8.4318  -15.6467   -2.9410 C.3         1 NHT      -0.0438
      9 N2          4.6161  -17.8333   -3.3750 N.2         1 NHT      -0.3555
     10 O3          2.1888  -19.5881   -4.2309 O.3         1 NHT      -0.3886
     11 O4          0.3400  -19.7698   -2.0770 O.3         1 NHT      -0.3866
     12 O5          3.2818  -18.2214   -0.4438 O.3         1 NHT      -0.3538
     13 N1          6.0092  -16.0001   -3.2186 N.pl3       1 NHT      -0.2802
     14 O6          3.0612  -20.1473    1.4181 O.3         1 NHT      -0.3924
     15 S1          5.7816  -17.6872   -1.0615 S.3         1 NHT       0.0009
     16 C9          6.9992  -15.1438   -2.6450 C.3         1 NHT       0.0329
     17 H1          4.6512  -19.7622   -0.7905 H           1 NHT       0.0757
     18 H2          4.4597  -19.8452   -3.1147 H           1 NHT       0.0398
     19 H3          2.1006  -17.9332   -3.0233 H           1 NHT       0.0626
     20 H4          2.1316  -20.7003   -1.7541 H           1 NHT       0.0646
     21 H5          1.2612  -18.1294   -0.4129 H           1 NHT       0.0646
     22 H6          1.3165  -20.7569    0.4748 H           1 NHT       0.0584
     23 H7          1.1916  -19.3029    1.4898 H           1 NHT       0.0584
     24 H8          9.1567  -14.9477   -2.5170 H           1 NHT       0.0250
     25 H9          8.5852  -15.7068   -4.0190 H           1 NHT       0.0250
     26 H10         8.5841  -16.6276   -2.5001 H           1 NHT       0.0250
     27 H11         1.6817  -18.9052   -4.7261 H           1 NHT       0.2099
     28 H12         0.0704  -18.8758   -2.3995 H           1 NHT       0.2100
     29 H13         5.6718  -15.7408   -4.0844 H           1 NHT       0.1939
     30 H14         3.4756  -20.8473    0.8597 H           1 NHT       0.2095
     31 H15         6.8769  -14.1493   -3.0993 H           1 NHT       0.0531
     32 H16         6.8552  -15.0235   -1.5623 H           1 NHT       0.0531
@<TRIPOS>BOND
     1     1     2   1
     2     1    12   1
     3    15     1   1
     4     2     3   1
     5     9     2   1
     6     3     4   1
     7     3    10   1
     8     5     4   1
     9     4    11   1
    10     5     6   1
    11    12     5   1
    12     6    14   1
    13     7     9   2
    14    13     7   1
    15     7    15   1
    16    16     8   1
    17    13    16   1
    18     1    17   1
    19     2    18   1
    20     3    19   1
    21     4    20   1
    22     5    21   1
    23     6    22   1
    24     6    23   1
    25     8    24   1
    26     8    25   1
    27     8    26   1
    28    10    27   1
    29    11    28   1
    30    13    29   1
    31    14    30   1
    32    16    31   1
    33    16    32   1
@<TRIPOS>SUBSTRUCTURE
     1  NHT      1

