@<TRIPOS>MOLECULE
2vw5_ligand_023
    78    79
SMALL
GAST_HUCK
****
This file was generated by PARSER (from files_GN.cpp)

@<TRIPOS>ATOM
      1 O37        40.8946   -2.5911   32.3041 O.2         1 BC6      -0.3848
      2 C21        41.1878   -3.4368   33.1378 C.2         1 BC6       0.2138
      3 C20        42.1331   -3.1265   34.0642 C.2         1 BC6       0.0175
      4 C36        43.4840   -2.8404   33.5801 C.3         1 BC6      -0.0331
      5 C19        41.7595   -3.1193   35.3659 C.2         1 BC6      -0.0677
      6 C18        42.6434   -3.0576   36.5113 C.3         1 BC6      -0.0250
      7 C17        42.0720   -3.6646   37.8262 C.3         1 BC6      -0.0362
      8 C16        40.7039   -3.1487   38.4147 C.3         1 BC6      -0.0026
      9 C35        40.7373   -1.6083   38.7019 C.3         1 BC6      -0.0578
     10 N22        40.4121   -4.5128   33.1743 N.am        1 BC6      -0.2407
     11 C3         40.4958   -5.6339   33.9565 C.ar        1 BC6       0.0494
     12 C4         39.2974   -6.1409   34.5009 C.ar        1 BC6      -0.0212
     13 C5         39.2575   -7.4117   35.1020 C.ar        1 BC6       0.0678
     14 O36        38.0934   -7.9216   35.5803 O.3         1 BC6      -0.3387
     15 C6         40.4380   -8.1671   35.2016 C.ar        1 BC6      -0.0476
     16 C1         41.6680   -7.6685   34.7088 C.ar        1 BC6      -0.0648
     17 C2         41.6815   -6.3955   34.0895 C.ar        1 BC6      -0.0516
     18 C7         42.9132   -8.4854   34.8390 C.3         1 BC6      -0.0222
     19 C8         43.8192   -8.1478   36.0734 C.3         1 BC6      -0.0322
     20 C25        44.6305   -6.8469   35.8497 C.3         1 BC6      -0.0605
     21 C9         42.9946   -8.1411   37.4008 C.3         1 BC6      -0.0197
     22 C10        43.7060   -7.8681   38.7622 C.3         1 BC6       0.0859
     23 O26        44.9517   -8.6078   38.7770 O.3         1 BC6      -0.3771
     24 C27        45.8472   -8.4267   39.8886 C.3         1 BC6       0.0369
     25 C11        42.7876   -8.2576   39.9744 C.3         1 BC6       0.0868
     26 O28        42.7682   -9.6834   40.0558 O.3         1 BC6      -0.3877
     27 C12        41.3016   -7.7357   39.9768 C.3         1 BC6      -0.0094
     28 C29        40.4865   -8.3494   41.1491 C.3         1 BC6      -0.0567
     29 C13        41.2025   -6.2678   40.0596 C.2         1 BC6      -0.1009
     30 C14        40.3050   -5.4635   39.4345 C.2         1 BC6      -0.0506
     31 C30        39.3553   -6.0034   38.4688 C.3         1 BC6      -0.0376
     32 C15        40.2893   -4.0066   39.6843 C.3         1 BC6       0.1158
     33 O31        38.9959   -3.7726   40.2974 O.3         1 BC6      -0.2488
     34 C32        37.9449   -2.8993   40.2032 C.2         1 BC6       0.3192
     35 O33        37.9530   -1.8188   39.3522 O.2         1 BC6      -0.3776
     36 N34        36.8935   -3.0991   41.0062 N.am        1 BC6      -0.2762
     37 H1         44.1737   -2.5235   34.3635 H           1 BC6       0.0348
     38 H2         43.4582   -2.0364   32.8385 H           1 BC6       0.0348
     39 H3         43.8967   -3.7346   33.1074 H           1 BC6       0.0348
     40 H4         40.7990   -3.2576   35.5723 H           1 BC6       0.0638
     41 H5         42.9717   -2.0273   36.6614 H           1 BC6       0.0437
     42 H6         43.5350   -3.6459   36.2763 H           1 BC6       0.0437
     43 H7         42.8412   -3.5488   38.5911 H           1 BC6       0.0295
     44 H8         41.9932   -4.7349   37.6271 H           1 BC6       0.0295
     45 H9         39.9380   -3.3108   37.6586 H           1 BC6       0.0350
     46 H10        39.7647   -1.1388   38.4699 H           1 BC6       0.0235
     47 H11        41.5142   -1.0918   38.1063 H           1 BC6       0.0235
     48 H12        40.9295   -1.4057   39.7631 H           1 BC6       0.0235
     49 H13        39.6461   -4.4777   32.5840 H           1 BC6       0.2240
     50 H14        38.4364   -5.5936   34.4409 H           1 BC6       0.0366
     51 H15        37.3722   -7.5437   35.0320 H           1 BC6       0.2475
     52 H16        40.3977   -9.0859   35.6491 H           1 BC6       0.0358
     53 H17        42.5483   -6.0472   33.6745 H           1 BC6       0.0351
     54 H18        43.4932   -8.3988   33.9164 H           1 BC6       0.0424
     55 H19        42.6407   -9.5427   34.9083 H           1 BC6       0.0424
     56 H20        44.5545   -8.9565   36.1518 H           1 BC6       0.0321
     57 H21        45.3631   -6.7147   36.6464 H           1 BC6       0.0234
     58 H22        43.9642   -5.9879   35.8298 H           1 BC6       0.0234
     59 H23        45.1719   -6.8889   34.9029 H           1 BC6       0.0234
     60 H24        42.5000   -9.1130   37.4655 H           1 BC6       0.0295
     61 H25        42.2216   -7.3787   37.3012 H           1 BC6       0.0295
     62 H26        43.9277   -6.7962   38.8120 H           1 BC6       0.0623
     63 H27        46.7352   -9.0370   39.7195 H           1 BC6       0.0524
     64 H28        45.4092   -8.7484   40.8305 H           1 BC6       0.0524
     65 H29        46.1568   -7.3861   39.9734 H           1 BC6       0.0524
     66 H30        43.2546   -7.8939   40.8910 H           1 BC6       0.0637
     67 H31        43.6775   -9.9454   40.2968 H           1 BC6       0.2101
     68 H32        40.8249   -8.1098   39.0716 H           1 BC6       0.0398
     69 H33        39.4588   -7.9865   41.1253 H           1 BC6       0.0247
     70 H34        40.9382   -8.0904   42.1074 H           1 BC6       0.0247
     71 H35        40.4440   -9.4352   41.0705 H           1 BC6       0.0247
     72 H36        41.8039   -5.8456   40.7262 H           1 BC6       0.0246
     73 H37        38.7244   -6.7663   38.9321 H           1 BC6       0.0376
     74 H38        39.9028   -6.4533   37.6404 H           1 BC6       0.0376
     75 H39        38.6944   -5.2471   38.0418 H           1 BC6       0.0376
     76 H40        41.0073   -3.7492   40.4658 H           1 BC6       0.0799
     77 H41        36.2128   -2.4142   41.0659 H           1 BC6       0.1831
     78 H42        36.8426   -3.9068   41.5463 H           1 BC6       0.1831
@<TRIPOS>BOND
     1     1     2   2
     2     2     3   1
     3     2    10  am
     4     3     4   1
     5     3     5   2
     6     5     6   1
     7     6     7   1
     8     7     8   1
     9     8     9   1
    10     8    32   1
    11    10    11   1
    12    11    12  ar
    13    11    17  ar
    14    12    13  ar
    15    13    14   1
    16    13    15  ar
    17    15    16  ar
    18    16    17  ar
    19    16    18   1
    20    18    19   1
    21    19    20   1
    22    19    21   1
    23    21    22   1
    24    22    23   1
    25    22    25   1
    26    23    24   1
    27    25    26   1
    28    25    27   1
    29    27    28   1
    30    27    29   1
    31    29    30   2
    32    30    31   1
    33    30    32   1
    34    32    33   1
    35    33    34   1
    36    34    35   2
    37    34    36  am
    38     4    37   1
    39     4    38   1
    40     4    39   1
    41     5    40   1
    42     6    41   1
    43     6    42   1
    44     7    43   1
    45     7    44   1
    46     8    45   1
    47     9    46   1
    48     9    47   1
    49     9    48   1
    50    10    49   1
    51    12    50   1
    52    14    51   1
    53    15    52   1
    54    17    53   1
    55    18    54   1
    56    18    55   1
    57    19    56   1
    58    20    57   1
    59    20    58   1
    60    20    59   1
    61    21    60   1
    62    21    61   1
    63    22    62   1
    64    24    63   1
    65    24    64   1
    66    24    65   1
    67    25    66   1
    68    26    67   1
    69    27    68   1
    70    28    69   1
    71    28    70   1
    72    28    71   1
    73    29    72   1
    74    31    73   1
    75    31    74   1
    76    31    75   1
    77    32    76   1
    78    36    77   1
    79    36    78   1
@<TRIPOS>SUBSTRUCTURE
     1  BC6      2

