@<TRIPOS>MOLECULE
2vw5_ligand_026
    78    79
SMALL
GAST_HUCK
****
This file was generated by PARSER (from files_GN.cpp)

@<TRIPOS>ATOM
      1 O37        45.6719   -4.6898   33.2815 O.2         1 BC6      -0.3848
      2 C21        44.7451   -5.2283   33.8706 C.2         1 BC6       0.2138
      3 C20        44.8746   -6.5614   34.1631 C.2         1 BC6       0.0175
      4 C36        45.0075   -7.4769   33.0287 C.3         1 BC6      -0.0331
      5 C19        44.9151   -6.9403   35.4626 C.2         1 BC6      -0.0677
      6 C18        45.1325   -8.2790   35.9982 C.3         1 BC6      -0.0250
      7 C17        44.6987   -8.4514   37.4870 C.3         1 BC6      -0.0362
      8 C16        45.5064   -7.7004   38.6054 C.3         1 BC6      -0.0026
      9 C35        47.0054   -8.1194   38.6663 C.3         1 BC6      -0.0578
     10 N22        43.8073   -4.3912   34.3067 N.am        1 BC6      -0.2407
     11 C3         42.6620   -4.6442   35.0090 C.ar        1 BC6       0.0494
     12 C4         42.2940   -3.7149   36.0035 C.ar        1 BC6      -0.0212
     13 C5         41.1235   -3.9010   36.7601 C.ar        1 BC6       0.0678
     14 O36        40.7888   -3.0196   37.7339 O.3         1 BC6      -0.3387
     15 C6         40.2957   -5.0100   36.5085 C.ar        1 BC6      -0.0476
     16 C1         40.6222   -5.9448   35.4975 C.ar        1 BC6      -0.0648
     17 C2         41.8056   -5.7397   34.7485 C.ar        1 BC6      -0.0516
     18 C7         39.7200   -7.1020   35.2192 C.3         1 BC6      -0.0222
     19 C8         40.0842   -8.4498   35.9207 C.3         1 BC6      -0.0322
     20 C25        41.3945   -9.0575   35.3538 C.3         1 BC6      -0.0605
     21 C9         40.0980   -8.2969   37.4772 C.3         1 BC6      -0.0197
     22 C10        40.3328   -9.5935   38.3244 C.3         1 BC6       0.0859
     23 O26        39.6380  -10.7569   37.8059 O.3         1 BC6      -0.3771
     24 C27        38.1962  -10.8275   37.9087 C.3         1 BC6       0.0369
     25 C11        40.1449   -9.3880   39.8695 C.3         1 BC6       0.0868
     26 O28        38.7632   -9.0424   40.1008 O.3         1 BC6      -0.3877
     27 C12        41.0498   -8.2776   40.5117 C.3         1 BC6      -0.0094
     28 C29        40.8921   -8.1869   42.0509 C.3         1 BC6      -0.0567
     29 C13        42.4738   -8.4502   40.2438 C.2         1 BC6      -0.1009
     30 C14        43.4102   -7.4878   40.0494 C.2         1 BC6      -0.0506
     31 C30        43.1047   -6.0693   39.8419 C.3         1 BC6      -0.0376
     32 C15        44.8376   -7.8776   40.0171 C.3         1 BC6       0.1158
     33 O31        45.5517   -7.1360   41.0275 O.3         1 BC6      -0.2488
     34 C32        45.3979   -7.1735   42.3798 C.2         1 BC6       0.3192
     35 O33        44.5104   -7.9901   42.9919 O.2         1 BC6      -0.3776
     36 N34        46.1355   -6.3509   43.1404 N.am        1 BC6      -0.2762
     37 H1         45.1579   -8.5166   33.3126 H           1 BC6       0.0348
     38 H2         45.8616   -7.1917   32.4113 H           1 BC6       0.0348
     39 H3         44.1052   -7.4313   32.4144 H           1 BC6       0.0348
     40 H4         44.7859   -6.2302   36.1429 H           1 BC6       0.0638
     41 H5         46.1793   -8.5504   35.8669 H           1 BC6       0.0437
     42 H6         44.5400   -8.9973   35.4280 H           1 BC6       0.0437
     43 H7         44.6851   -9.5164   37.7241 H           1 BC6       0.0295
     44 H8         43.6589   -8.1254   37.5298 H           1 BC6       0.0295
     45 H9         45.4999   -6.6404   38.3576 H           1 BC6       0.0350
     46 H10        47.5460   -7.5128   39.3937 H           1 BC6       0.0235
     47 H11        47.4956   -7.9775   37.7031 H           1 BC6       0.0235
     48 H12        47.1089   -9.1632   38.9632 H           1 BC6       0.0235
     49 H13        43.9997   -3.4497   34.1651 H           1 BC6       0.2240
     50 H14        42.8847   -2.9005   36.1926 H           1 BC6       0.0366
     51 H15        40.4458   -2.2374   37.2549 H           1 BC6       0.2475
     52 H16        39.4482   -5.1296   37.0677 H           1 BC6       0.0358
     53 H17        42.0358   -6.3841   33.9878 H           1 BC6       0.0351
     54 H18        39.6870   -7.2750   34.1434 H           1 BC6       0.0424
     55 H19        38.6985   -6.8372   35.5039 H           1 BC6       0.0424
     56 H20        39.2865   -9.1554   35.6710 H           1 BC6       0.0321
     57 H21        41.5817  -10.0494   35.7660 H           1 BC6       0.0234
     58 H22        42.2332   -8.4140   35.5991 H           1 BC6       0.0234
     59 H23        41.3356   -9.1513   34.2678 H           1 BC6       0.0234
     60 H24        39.1525   -7.8491   37.7916 H           1 BC6       0.0295
     61 H25        40.8912   -7.5874   37.7329 H           1 BC6       0.0295
     62 H26        41.3816   -9.8654   38.1809 H           1 BC6       0.0623
     63 H27        37.8427  -11.7012   37.3542 H           1 BC6       0.0524
     64 H28        37.7127   -9.9272   37.5008 H           1 BC6       0.0524
     65 H29        37.8739  -10.9657   38.9581 H           1 BC6       0.0524
     66 H30        40.3478  -10.3522   40.3543 H           1 BC6       0.0637
     67 H31        38.6001   -9.2657   41.0570 H           1 BC6       0.2101
     68 H32        40.6640   -7.3483   40.1004 H           1 BC6       0.0398
     69 H33        41.4906   -7.3607   42.4430 H           1 BC6       0.0247
     70 H34        41.2144   -9.1072   42.5407 H           1 BC6       0.0247
     71 H35        39.8544   -7.9999   42.3144 H           1 BC6       0.0247
     72 H36        42.7899   -9.3908   40.3413 H           1 BC6       0.0246
     73 H37        42.0937   -5.7722   40.0996 H           1 BC6       0.0376
     74 H38        43.2656   -5.8154   38.7941 H           1 BC6       0.0376
     75 H39        43.7598   -5.4518   40.4526 H           1 BC6       0.0376
     76 H40        44.9710   -8.9310   40.2782 H           1 BC6       0.0799
     77 H41        46.0314   -6.3547   44.1057 H           1 BC6       0.1831
     78 H42        46.7481   -5.7238   42.7277 H           1 BC6       0.1831
@<TRIPOS>BOND
     1     1     2   2
     2     2     3   1
     3     2    10  am
     4     3     4   1
     5     3     5   2
     6     5     6   1
     7     6     7   1
     8     7     8   1
     9     8     9   1
    10     8    32   1
    11    10    11   1
    12    11    12  ar
    13    11    17  ar
    14    12    13  ar
    15    13    14   1
    16    13    15  ar
    17    15    16  ar
    18    16    17  ar
    19    16    18   1
    20    18    19   1
    21    19    20   1
    22    19    21   1
    23    21    22   1
    24    22    23   1
    25    22    25   1
    26    23    24   1
    27    25    26   1
    28    25    27   1
    29    27    28   1
    30    27    29   1
    31    29    30   2
    32    30    31   1
    33    30    32   1
    34    32    33   1
    35    33    34   1
    36    34    35   2
    37    34    36  am
    38     4    37   1
    39     4    38   1
    40     4    39   1
    41     5    40   1
    42     6    41   1
    43     6    42   1
    44     7    43   1
    45     7    44   1
    46     8    45   1
    47     9    46   1
    48     9    47   1
    49     9    48   1
    50    10    49   1
    51    12    50   1
    52    14    51   1
    53    15    52   1
    54    17    53   1
    55    18    54   1
    56    18    55   1
    57    19    56   1
    58    20    57   1
    59    20    58   1
    60    20    59   1
    61    21    60   1
    62    21    61   1
    63    22    62   1
    64    24    63   1
    65    24    64   1
    66    24    65   1
    67    25    66   1
    68    26    67   1
    69    27    68   1
    70    28    69   1
    71    28    70   1
    72    28    71   1
    73    29    72   1
    74    31    73   1
    75    31    74   1
    76    31    75   1
    77    32    76   1
    78    36    77   1
    79    36    78   1
@<TRIPOS>SUBSTRUCTURE
     1  BC6      2

