@<TRIPOS>MOLECULE
2vw5_ligand_001
    78    79
SMALL
GAST_HUCK
****
This file was generated by PARSER (from files_GN.cpp)

@<TRIPOS>ATOM
      1 O37        37.1423   -8.5672   39.2190 O.2         1 BC6      -0.3848
      2 C21        38.1458   -8.2562   38.5880 C.2         1 BC6       0.2138
      3 C20        37.9739   -7.9022   37.2709 C.2         1 BC6       0.0175
      4 C36        37.3117   -8.8897   36.4130 C.3         1 BC6      -0.0331
      5 C19        38.3409   -6.6664   36.8558 C.2         1 BC6      -0.0677
      6 C18        38.1408   -6.1001   35.5205 C.3         1 BC6      -0.0250
      7 C17        38.8779   -4.7503   35.2552 C.3         1 BC6      -0.0362
      8 C16        38.3376   -3.4979   36.0238 C.3         1 BC6      -0.0026
      9 C35        36.9687   -3.0494   35.4309 C.3         1 BC6      -0.0578
     10 N22        39.2455   -8.2024   39.3313 N.am        1 BC6      -0.2407
     11 C3         40.5359   -7.8869   39.0094 C.ar        1 BC6       0.0494
     12 C4         41.2763   -7.1861   39.9842 C.ar        1 BC6      -0.0212
     13 C5         42.6117   -6.8235   39.7466 C.ar        1 BC6       0.0678
     14 O36        43.2968   -6.1499   40.7005 O.3         1 BC6      -0.3387
     15 C6         43.2309   -7.1831   38.5364 C.ar        1 BC6      -0.0476
     16 C1         42.5302   -7.9228   37.5535 C.ar        1 BC6      -0.0648
     17 C2         41.1839   -8.2827   37.8181 C.ar        1 BC6      -0.0516
     18 C7         43.2153   -8.3353   36.2902 C.3         1 BC6      -0.0222
     19 C8         42.8742   -7.4978   35.0121 C.3         1 BC6      -0.0322
     20 C25        41.3828   -7.6457   34.6243 C.3         1 BC6      -0.0605
     21 C9         43.3408   -6.0095   35.1454 C.3         1 BC6      -0.0197
     22 C10        43.0045   -5.0377   33.9649 C.3         1 BC6       0.0859
     23 O26        43.2127   -5.6313   32.6554 O.3         1 BC6      -0.3771
     24 C27        44.5485   -5.8823   32.1692 C.3         1 BC6       0.0369
     25 C11        43.6071   -3.5929   34.1084 C.3         1 BC6       0.0868
     26 O28        45.0370   -3.6641   34.1278 O.3         1 BC6      -0.3877
     27 C12        43.1078   -2.7421   35.3366 C.3         1 BC6      -0.0094
     28 C29        43.7939   -1.3473   35.3862 C.3         1 BC6      -0.0567
     29 C13        41.6574   -2.5319   35.3418 C.2         1 BC6      -0.1009
     30 C14        40.7550   -2.6034   36.3575 C.2         1 BC6      -0.0506
     31 C30        41.0866   -3.0159   37.7260 C.3         1 BC6      -0.0376
     32 C15        39.3324   -2.2767   36.0805 C.3         1 BC6       0.1158
     33 O31        38.8389   -1.2252   36.9421 O.3         1 BC6      -0.2488
     34 C32        38.2201   -1.2243   38.1537 C.2         1 BC6       0.3192
     35 O33        37.9191   -2.3579   38.8320 O.2         1 BC6      -0.3776
     36 N34        37.8030   -0.0633   38.6698 N.am        1 BC6      -0.2762
     37 H1         37.1829   -8.5717   35.3800 H           1 BC6       0.0348
     38 H2         36.3158   -9.1163   36.8001 H           1 BC6       0.0348
     39 H3         37.8979   -9.8108   36.4004 H           1 BC6       0.0348
     40 H4         38.7931   -6.0752   37.5193 H           1 BC6       0.0638
     41 H5         37.0723   -5.9879   35.3390 H           1 BC6       0.0437
     42 H6         38.5181   -6.8085   34.7833 H           1 BC6       0.0437
     43 H7         38.8622   -4.5364   34.1833 H           1 BC6       0.0295
     44 H8         39.9214   -4.9132   35.5179 H           1 BC6       0.0295
     45 H9         38.1618   -3.8159   37.0477 H           1 BC6       0.0350
     46 H10        36.5864   -2.1740   35.9549 H           1 BC6       0.0235
     47 H11        36.2254   -3.8381   35.5259 H           1 BC6       0.0235
     48 H12        37.0693   -2.7982   34.3727 H           1 BC6       0.0235
     49 H13        39.0950   -8.3487   40.2803 H           1 BC6       0.2240
     50 H14        40.8361   -6.9195   40.8700 H           1 BC6       0.0366
     51 H15        43.4268   -5.2482   40.3410 H           1 BC6       0.2475
     52 H16        44.2035   -6.9081   38.3801 H           1 BC6       0.0358
     53 H17        40.6746   -8.8602   37.1470 H           1 BC6       0.0351
     54 H18        42.9843   -9.3864   36.0980 H           1 BC6       0.0424
     55 H19        44.2999   -8.2982   36.4304 H           1 BC6       0.0424
     56 H20        43.4459   -7.9383   34.1895 H           1 BC6       0.0321
     57 H21        41.1801   -7.1884   33.6619 H           1 BC6       0.0234
     58 H22        40.7685   -7.1549   35.3682 H           1 BC6       0.0234
     59 H23        41.0997   -8.6972   34.5629 H           1 BC6       0.0234
     60 H24        44.4236   -6.0162   35.2845 H           1 BC6       0.0295
     61 H25        42.9001   -5.5898   36.0506 H           1 BC6       0.0295
     62 H26        41.9247   -4.9047   33.9837 H           1 BC6       0.0623
     63 H27        44.4779   -6.4982   31.2651 H           1 BC6       0.0524
     64 H28        45.1564   -6.4259   32.9010 H           1 BC6       0.0524
     65 H29        45.0473   -4.9429   31.9047 H           1 BC6       0.0524
     66 H30        43.3474   -3.0498   33.1939 H           1 BC6       0.0637
     67 H31        45.2709   -4.1345   34.9527 H           1 BC6       0.2101
     68 H32        43.4374   -3.2736   36.2209 H           1 BC6       0.0398
     69 H33        43.4406   -0.7766   36.2481 H           1 BC6       0.0247
     70 H34        43.5841   -0.7758   34.4794 H           1 BC6       0.0247
     71 H35        44.8756   -1.4518   35.4842 H           1 BC6       0.0247
     72 H36        41.3109   -2.2346   34.4582 H           1 BC6       0.0246
     73 H37        42.1004   -3.3689   37.8714 H           1 BC6       0.0376
     74 H38        40.4295   -3.8278   38.0399 H           1 BC6       0.0376
     75 H39        40.9502   -2.1748   38.4059 H           1 BC6       0.0376
     76 H40        39.2638   -1.8034   35.0968 H           1 BC6       0.0799
     77 H41        37.2876   -0.0593   39.4935 H           1 BC6       0.1831
     78 H42        37.9822    0.7740   38.2096 H           1 BC6       0.1831
@<TRIPOS>BOND
     1     1     2   2
     2     2     3   1
     3     2    10  am
     4     3     4   1
     5     3     5   2
     6     5     6   1
     7     6     7   1
     8     7     8   1
     9     8     9   1
    10     8    32   1
    11    10    11   1
    12    11    12  ar
    13    11    17  ar
    14    12    13  ar
    15    13    14   1
    16    13    15  ar
    17    15    16  ar
    18    16    17  ar
    19    16    18   1
    20    18    19   1
    21    19    20   1
    22    19    21   1
    23    21    22   1
    24    22    23   1
    25    22    25   1
    26    23    24   1
    27    25    26   1
    28    25    27   1
    29    27    28   1
    30    27    29   1
    31    29    30   2
    32    30    31   1
    33    30    32   1
    34    32    33   1
    35    33    34   1
    36    34    35   2
    37    34    36  am
    38     4    37   1
    39     4    38   1
    40     4    39   1
    41     5    40   1
    42     6    41   1
    43     6    42   1
    44     7    43   1
    45     7    44   1
    46     8    45   1
    47     9    46   1
    48     9    47   1
    49     9    48   1
    50    10    49   1
    51    12    50   1
    52    14    51   1
    53    15    52   1
    54    17    53   1
    55    18    54   1
    56    18    55   1
    57    19    56   1
    58    20    57   1
    59    20    58   1
    60    20    59   1
    61    21    60   1
    62    21    61   1
    63    22    62   1
    64    24    63   1
    65    24    64   1
    66    24    65   1
    67    25    66   1
    68    26    67   1
    69    27    68   1
    70    28    69   1
    71    28    70   1
    72    28    71   1
    73    29    72   1
    74    31    73   1
    75    31    74   1
    76    31    75   1
    77    32    76   1
    78    36    77   1
    79    36    78   1
@<TRIPOS>SUBSTRUCTURE
     1  BC6      2

