@<TRIPOS>MOLECULE
2vw5_ligand_009
    78    79
SMALL
GAST_HUCK
****
This file was generated by PARSER (from files_GN.cpp)

@<TRIPOS>ATOM
      1 O37        42.0689  -13.0024   39.6344 O.2         1 BC6      -0.3848
      2 C21        41.5773  -12.1147   38.9469 C.2         1 BC6       0.2138
      3 C20        40.5526  -11.3944   39.4996 C.2         1 BC6       0.0175
      4 C36        39.3480  -12.0951   39.9482 C.3         1 BC6      -0.0331
      5 C19        40.7146  -10.0623   39.6784 C.2         1 BC6      -0.0677
      6 C18        39.8313   -9.1778   40.4347 C.3         1 BC6      -0.0250
      7 C17        40.2945   -7.6886   40.4533 C.3         1 BC6      -0.0362
      8 C16        41.7053   -7.4025   41.0895 C.3         1 BC6      -0.0026
      9 C35        41.6904   -7.5922   42.6381 C.3         1 BC6      -0.0578
     10 N22        42.2298  -11.8790   37.8119 N.am        1 BC6      -0.2407
     11 C3         42.0331  -10.9520   36.8256 C.ar        1 BC6       0.0494
     12 C4         43.1882  -10.4424   36.1999 C.ar        1 BC6      -0.0212
     13 C5         43.0987   -9.4997   35.1619 C.ar        1 BC6       0.0678
     14 O36        44.2126   -8.9731   34.5990 O.3         1 BC6      -0.3387
     15 C6         41.8360   -9.0803   34.7129 C.ar        1 BC6      -0.0476
     16 C1         40.6520   -9.5679   35.3142 C.ar        1 BC6      -0.0648
     17 C2         40.7665  -10.5174   36.3637 C.ar        1 BC6      -0.0516
     18 C7         39.3236   -9.0662   34.8446 C.3         1 BC6      -0.0222
     19 C8         38.6961   -7.9082   35.6939 C.3         1 BC6      -0.0322
     20 C25        38.2003   -8.4460   37.0619 C.3         1 BC6      -0.0605
     21 C9         39.6454   -6.6684   35.8165 C.3         1 BC6      -0.0197
     22 C10        39.1428   -5.4586   36.6641 C.3         1 BC6       0.0859
     23 O26        37.7515   -5.1499   36.3924 O.3         1 BC6      -0.3771
     24 C27        37.3641   -4.1417   35.4469 C.3         1 BC6       0.0369
     25 C11        40.0907   -4.2070   36.6361 C.3         1 BC6       0.0868
     26 O28        40.1988   -3.7597   35.2772 O.3         1 BC6      -0.3877
     27 C12        41.5417   -4.3676   37.2379 C.3         1 BC6      -0.0094
     28 C29        42.3214   -3.0231   37.1527 C.3         1 BC6      -0.0567
     29 C13        41.5597   -4.8076   38.6425 C.2         1 BC6      -0.1009
     30 C14        42.3204   -5.7768   39.2124 C.2         1 BC6      -0.0506
     31 C30        43.1577   -6.6690   38.4036 C.3         1 BC6      -0.0376
     32 C15        42.2958   -6.0048   40.6754 C.3         1 BC6       0.1158
     33 O31        43.6607   -5.8945   41.1313 O.3         1 BC6      -0.2488
     34 C32        44.1340   -5.6270   42.3731 C.2         1 BC6       0.3192
     35 O33        43.3009   -5.4424   43.4203 O.2         1 BC6      -0.3776
     36 N34        45.4576   -5.6607   42.5797 N.am        1 BC6      -0.2762
     37 H1         39.0519  -11.7878   40.9540 H           1 BC6       0.0348
     38 H2         39.4755  -13.1812   39.9805 H           1 BC6       0.0348
     39 H3         38.5296  -11.8746   39.2580 H           1 BC6       0.0348
     40 H4         41.5273   -9.6503   39.2881 H           1 BC6       0.0638
     41 H5         39.7546   -9.5442   41.4582 H           1 BC6       0.0437
     42 H6         38.8280   -9.2228   39.9978 H           1 BC6       0.0437
     43 H7         39.5373   -7.0901   40.9658 H           1 BC6       0.0295
     44 H8         40.2813   -7.3641   39.4120 H           1 BC6       0.0295
     45 H9         42.4019   -8.1549   40.7194 H           1 BC6       0.0350
     46 H10        42.7176   -7.6123   43.0206 H           1 BC6       0.0235
     47 H11        41.2216   -8.5441   42.9130 H           1 BC6       0.0235
     48 H12        41.1519   -6.7741   43.1296 H           1 BC6       0.0235
     49 H13        43.0253  -12.4183   37.6925 H           1 BC6       0.2240
     50 H14        44.1093  -10.7451   36.5115 H           1 BC6       0.0366
     51 H15        44.8543   -8.8514   35.3300 H           1 BC6       0.2475
     52 H16        41.7821   -8.3938   33.9572 H           1 BC6       0.0358
     53 H17        39.9176  -10.9076   36.7815 H           1 BC6       0.0351
     54 H18        38.6276   -9.9130   34.7969 H           1 BC6       0.0424
     55 H19        39.4134   -8.7099   33.8120 H           1 BC6       0.0424
     56 H20        37.8012   -7.5817   35.1531 H           1 BC6       0.0321
     57 H21        37.5894   -7.7037   37.5776 H           1 BC6       0.0234
     58 H22        39.0544   -8.6911   37.6869 H           1 BC6       0.0234
     59 H23        37.5890   -9.3457   36.9316 H           1 BC6       0.0234
     60 H24        39.8666   -6.3208   34.8105 H           1 BC6       0.0295
     61 H25        40.5826   -6.9982   36.2619 H           1 BC6       0.0295
     62 H26        39.1230   -5.7855   37.7072 H           1 BC6       0.0623
     63 H27        36.2922   -4.2358   35.2587 H           1 BC6       0.0524
     64 H28        37.8922   -4.2459   34.5007 H           1 BC6       0.0524
     65 H29        37.5405   -3.1454   35.8584 H           1 BC6       0.0524
     66 H30        39.5812   -3.4107   37.1931 H           1 BC6       0.0637
     67 H31        40.3055   -2.7836   35.3248 H           1 BC6       0.2101
     68 H32        42.0743   -5.0774   36.6032 H           1 BC6       0.0398
     69 H33        43.2800   -3.0883   37.6629 H           1 BC6       0.0247
     70 H34        41.7468   -2.2159   37.6090 H           1 BC6       0.0247
     71 H35        42.5187   -2.7600   36.1135 H           1 BC6       0.0247
     72 H36        40.9993   -4.2696   39.2592 H           1 BC6       0.0246
     73 H37        43.8357   -6.0980   37.7669 H           1 BC6       0.0376
     74 H38        42.5227   -7.3015   37.7763 H           1 BC6       0.0376
     75 H39        43.7896   -7.3374   39.0006 H           1 BC6       0.0376
     76 H40        41.6995   -5.2414   41.1802 H           1 BC6       0.0799
     77 H41        45.8289   -5.4973   43.4645 H           1 BC6       0.1831
     78 H42        46.0456   -5.8997   41.8444 H           1 BC6       0.1831
@<TRIPOS>BOND
     1     1     2   2
     2     2     3   1
     3     2    10  am
     4     3     4   1
     5     3     5   2
     6     5     6   1
     7     6     7   1
     8     7     8   1
     9     8     9   1
    10     8    32   1
    11    10    11   1
    12    11    12  ar
    13    11    17  ar
    14    12    13  ar
    15    13    14   1
    16    13    15  ar
    17    15    16  ar
    18    16    17  ar
    19    16    18   1
    20    18    19   1
    21    19    20   1
    22    19    21   1
    23    21    22   1
    24    22    23   1
    25    22    25   1
    26    23    24   1
    27    25    26   1
    28    25    27   1
    29    27    28   1
    30    27    29   1
    31    29    30   2
    32    30    31   1
    33    30    32   1
    34    32    33   1
    35    33    34   1
    36    34    35   2
    37    34    36  am
    38     4    37   1
    39     4    38   1
    40     4    39   1
    41     5    40   1
    42     6    41   1
    43     6    42   1
    44     7    43   1
    45     7    44   1
    46     8    45   1
    47     9    46   1
    48     9    47   1
    49     9    48   1
    50    10    49   1
    51    12    50   1
    52    14    51   1
    53    15    52   1
    54    17    53   1
    55    18    54   1
    56    18    55   1
    57    19    56   1
    58    20    57   1
    59    20    58   1
    60    20    59   1
    61    21    60   1
    62    21    61   1
    63    22    62   1
    64    24    63   1
    65    24    64   1
    66    24    65   1
    67    25    66   1
    68    26    67   1
    69    27    68   1
    70    28    69   1
    71    28    70   1
    72    28    71   1
    73    29    72   1
    74    31    73   1
    75    31    74   1
    76    31    75   1
    77    32    76   1
    78    36    77   1
    79    36    78   1
@<TRIPOS>SUBSTRUCTURE
     1  BC6      2

