@<TRIPOS>MOLECULE
2vw5_ligand_021
    78    79
SMALL
GAST_HUCK
****
This file was generated by PARSER (from files_GN.cpp)

@<TRIPOS>ATOM
      1 O37        45.6606  -13.5792   32.8548 O.2         1 BC6      -0.3848
      2 C21        45.0568  -12.6120   33.2927 C.2         1 BC6       0.2138
      3 C20        44.5080  -11.7341   32.3885 C.2         1 BC6       0.0175
      4 C36        45.4068  -11.1111   31.4184 C.3         1 BC6      -0.0331
      5 C19        43.1731  -11.5191   32.4455 C.2         1 BC6      -0.0677
      6 C18        42.3678  -10.6059   31.6442 C.3         1 BC6      -0.0250
      7 C17        40.9920  -10.2425   32.2838 C.3         1 BC6      -0.0362
      8 C16        39.9974  -11.4023   32.6200 C.3         1 BC6      -0.0026
      9 C35        39.6029  -12.1623   31.3244 C.3         1 BC6      -0.0578
     10 N22        44.8258  -12.6325   34.5973 N.am        1 BC6      -0.2407
     11 C3         44.2612  -11.6766   35.4011 C.ar        1 BC6       0.0494
     12 C4         43.4716  -12.1134   36.4909 C.ar        1 BC6      -0.0212
     13 C5         43.0083  -11.1983   37.4548 C.ar        1 BC6       0.0678
     14 O36        42.2608  -11.6141   38.5008 O.3         1 BC6      -0.3387
     15 C6         43.3511   -9.8428   37.3496 C.ar        1 BC6      -0.0476
     16 C1         44.1083   -9.3651   36.2525 C.ar        1 BC6      -0.0648
     17 C2         44.5526  -10.2959   35.2842 C.ar        1 BC6      -0.0516
     18 C7         44.4320   -7.9092   36.1355 C.3         1 BC6      -0.0222
     19 C8         43.4480   -7.0800   35.2397 C.3         1 BC6      -0.0322
     20 C25        43.6572   -7.3742   33.7291 C.3         1 BC6      -0.0605
     21 C9         41.9655   -7.2607   35.7048 C.3         1 BC6      -0.0197
     22 C10        40.8443   -6.4680   34.9682 C.3         1 BC6       0.0859
     23 O26        41.2688   -5.0856   34.8589 O.3         1 BC6      -0.3771
     24 C27        40.5820   -4.2555   33.9056 C.3         1 BC6       0.0369
     25 C11        39.4535   -6.5846   35.6892 C.3         1 BC6       0.0868
     26 O28        39.5283   -5.8010   36.8834 O.3         1 BC6      -0.3877
     27 C12        38.9524   -8.0422   36.0161 C.3         1 BC6      -0.0094
     28 C29        37.5917   -8.0403   36.7710 C.3         1 BC6      -0.0567
     29 C13        38.8006   -8.8728   34.8137 C.2         1 BC6      -0.1009
     30 C14        39.0805  -10.1912   34.6778 C.2         1 BC6      -0.0506
     31 C30        39.7206  -10.9471   35.7509 C.3         1 BC6      -0.0376
     32 C15        38.7442  -10.8948   33.4216 C.3         1 BC6       0.1158
     33 O31        37.9022  -12.0236   33.7246 O.3         1 BC6      -0.2488
     34 C32        36.8374  -12.0950   34.5710 C.2         1 BC6       0.3192
     35 O33        36.4315  -11.0349   35.3067 O.2         1 BC6      -0.3776
     36 N34        36.1957  -13.2632   34.7049 N.am        1 BC6      -0.2762
     37 H1         44.9003  -10.4605   30.7051 H           1 BC6       0.0348
     38 H2         45.9212  -11.8801   30.8377 H           1 BC6       0.0348
     39 H3         46.1547  -10.5130   31.9437 H           1 BC6       0.0348
     40 H4         42.6730  -12.0320   33.1304 H           1 BC6       0.0638
     41 H5         42.2321  -11.0356   30.6462 H           1 BC6       0.0437
     42 H6         42.9093   -9.6662   31.5164 H           1 BC6       0.0437
     43 H7         40.4842   -9.5525   31.6097 H           1 BC6       0.0295
     44 H8         41.2164   -9.6908   33.1941 H           1 BC6       0.0295
     45 H9         40.4905  -12.1337   33.2546 H           1 BC6       0.0350
     46 H10        38.9197  -12.9781   31.5614 H           1 BC6       0.0235
     47 H11        40.4800  -12.6023   30.8519 H           1 BC6       0.0235
     48 H12        39.1277  -11.4785   30.6161 H           1 BC6       0.0235
     49 H13        45.0791  -13.4495   35.0509 H           1 BC6       0.2240
     50 H14        43.2629  -13.1130   36.6022 H           1 BC6       0.0366
     51 H15        41.4995  -12.1010   38.1084 H           1 BC6       0.2475
     52 H16        43.0289   -9.1951   38.0692 H           1 BC6       0.0358
     53 H17        45.1505   -9.9753   34.5194 H           1 BC6       0.0351
     54 H18        45.4515   -7.8007   35.7623 H           1 BC6       0.0424
     55 H19        44.4361   -7.4630   37.1308 H           1 BC6       0.0424
     56 H20        43.7115   -6.0242   35.3864 H           1 BC6       0.0321
     57 H21        43.0840   -6.6768   33.1176 H           1 BC6       0.0234
     58 H22        43.3393   -8.3861   33.4971 H           1 BC6       0.0234
     59 H23        44.7098   -7.2667   33.4602 H           1 BC6       0.0234
     60 H24        41.9194   -7.0106   36.7652 H           1 BC6       0.0295
     61 H25        41.7227   -8.3145   35.5956 H           1 BC6       0.0295
     62 H26        40.7514   -6.9005   33.9656 H           1 BC6       0.0623
     63 H27        41.0661   -3.2783   33.8902 H           1 BC6       0.0524
     64 H28        39.5363   -4.1153   34.1830 H           1 BC6       0.0524
     65 H29        40.6394   -4.6775   32.9018 H           1 BC6       0.0524
     66 H30        38.7026   -6.1106   35.0524 H           1 BC6       0.0637
     67 H31        38.6044   -5.6160   37.1425 H           1 BC6       0.2101
     68 H32        39.6702   -8.4823   36.7109 H           1 BC6       0.0398
     69 H33        37.2614   -9.0624   36.9741 H           1 BC6       0.0247
     70 H34        36.8250   -7.5359   36.1791 H           1 BC6       0.0247
     71 H35        37.6895   -7.5319   37.7320 H           1 BC6       0.0247
     72 H36        38.3491   -8.4178   34.0529 H           1 BC6       0.0246
     73 H37        39.1162  -10.9064   36.6607 H           1 BC6       0.0376
     74 H38        40.7107  -10.5433   35.9608 H           1 BC6       0.0376
     75 H39        39.8508  -12.0006   35.5000 H           1 BC6       0.0376
     76 H40        38.1580  -10.2573   32.7466 H           1 BC6       0.0799
     77 H41        35.4517  -13.3355   35.3229 H           1 BC6       0.1831
     78 H42        36.4947  -14.0438   34.2107 H           1 BC6       0.1831
@<TRIPOS>BOND
     1     1     2   2
     2     2     3   1
     3     2    10  am
     4     3     4   1
     5     3     5   2
     6     5     6   1
     7     6     7   1
     8     7     8   1
     9     8     9   1
    10     8    32   1
    11    10    11   1
    12    11    12  ar
    13    11    17  ar
    14    12    13  ar
    15    13    14   1
    16    13    15  ar
    17    15    16  ar
    18    16    17  ar
    19    16    18   1
    20    18    19   1
    21    19    20   1
    22    19    21   1
    23    21    22   1
    24    22    23   1
    25    22    25   1
    26    23    24   1
    27    25    26   1
    28    25    27   1
    29    27    28   1
    30    27    29   1
    31    29    30   2
    32    30    31   1
    33    30    32   1
    34    32    33   1
    35    33    34   1
    36    34    35   2
    37    34    36  am
    38     4    37   1
    39     4    38   1
    40     4    39   1
    41     5    40   1
    42     6    41   1
    43     6    42   1
    44     7    43   1
    45     7    44   1
    46     8    45   1
    47     9    46   1
    48     9    47   1
    49     9    48   1
    50    10    49   1
    51    12    50   1
    52    14    51   1
    53    15    52   1
    54    17    53   1
    55    18    54   1
    56    18    55   1
    57    19    56   1
    58    20    57   1
    59    20    58   1
    60    20    59   1
    61    21    60   1
    62    21    61   1
    63    22    62   1
    64    24    63   1
    65    24    64   1
    66    24    65   1
    67    25    66   1
    68    26    67   1
    69    27    68   1
    70    28    69   1
    71    28    70   1
    72    28    71   1
    73    29    72   1
    74    31    73   1
    75    31    74   1
    76    31    75   1
    77    32    76   1
    78    36    77   1
    79    36    78   1
@<TRIPOS>SUBSTRUCTURE
     1  BC6      2

