@<TRIPOS>MOLECULE
2vw5_ligand_016
    78    79
SMALL
GAST_HUCK
****
This file was generated by PARSER (from files_GN.cpp)

@<TRIPOS>ATOM
      1 O37        36.4393    1.0973   37.1477 O.2         1 BC6      -0.3848
      2 C21        37.4546    0.4800   36.8489 C.2         1 BC6       0.2138
      3 C20        37.2908   -0.8064   36.4175 C.2         1 BC6       0.0175
      4 C36        36.7884   -1.7784   37.3905 C.3         1 BC6      -0.0331
      5 C19        37.5702   -1.0930   35.1232 C.2         1 BC6      -0.0677
      6 C18        37.4698   -2.3924   34.4747 C.3         1 BC6      -0.0250
      7 C17        38.3615   -2.5475   33.2095 C.3         1 BC6      -0.0362
      8 C16        38.0510   -1.6450   31.9658 C.3         1 BC6      -0.0026
      9 C35        36.6110   -1.8925   31.4177 C.3         1 BC6      -0.0578
     10 N22        38.5709    1.2038   36.7951 N.am        1 BC6      -0.2407
     11 C3         39.8443    0.8267   36.4678 C.ar        1 BC6       0.0494
     12 C4         40.6351    1.7492   35.7455 C.ar        1 BC6      -0.0212
     13 C5         41.9701    1.4447   35.4099 C.ar        1 BC6       0.0678
     14 O36        42.7138    2.3062   34.6796 O.3         1 BC6      -0.3387
     15 C6         42.5347    0.2302   35.8327 C.ar        1 BC6      -0.0476
     16 C1         41.7755   -0.7089   36.5675 C.ar        1 BC6      -0.0648
     17 C2         40.4328   -0.3931   36.8785 C.ar        1 BC6      -0.0516
     18 C7         42.4031   -1.9859   37.0239 C.3         1 BC6      -0.0222
     19 C8         42.2119   -3.2271   36.0897 C.3         1 BC6      -0.0322
     20 C25        40.7679   -3.7824   36.1811 C.3         1 BC6      -0.0605
     21 C9         42.6815   -2.9390   34.6225 C.3         1 BC6      -0.0197
     22 C10        42.6532   -4.1301   33.6173 C.3         1 BC6       0.0859
     23 O26        43.2860   -5.2595   34.2696 O.3         1 BC6      -0.3771
     24 C27        42.9260   -6.5787   33.8257 C.3         1 BC6       0.0369
     25 C11        43.3657   -3.8038   32.2568 C.3         1 BC6       0.0868
     26 O28        44.7710   -3.6911   32.4969 O.3         1 BC6      -0.3877
     27 C12        42.8721   -2.5275   31.4837 C.3         1 BC6      -0.0094
     28 C29        43.6511   -2.3249   30.1513 C.3         1 BC6      -0.0567
     29 C13        41.4381   -2.5904   31.1797 C.2         1 BC6      -0.1009
     30 C14        40.5233   -1.5880   31.2555 C.2         1 BC6      -0.0506
     31 C30        40.8924   -0.2486   31.7124 C.3         1 BC6      -0.0376
     32 C15        39.1219   -1.8345   30.8325 C.3         1 BC6       0.1158
     33 O31        38.8081   -0.9659   29.7272 O.3         1 BC6      -0.2488
     34 C32        39.2903   -1.0112   28.4582 C.2         1 BC6       0.3192
     35 O33        40.1733   -1.9567   28.0594 O.2         1 BC6      -0.3776
     36 N34        38.8639   -0.0980   27.5781 N.am        1 BC6      -0.2762
     37 H1         36.4373   -2.6989   36.9287 H           1 BC6       0.0348
     38 H2         35.9415   -1.3740   37.9499 H           1 BC6       0.0348
     39 H3         37.5792   -2.0278   38.1018 H           1 BC6       0.0348
     40 H4         37.8920   -0.3443   34.5512 H           1 BC6       0.0638
     41 H5         36.4219   -2.5928   34.2350 H           1 BC6       0.0437
     42 H6         37.7929   -3.1728   35.1624 H           1 BC6       0.0437
     43 H7         38.3130   -3.5921   32.8952 H           1 BC6       0.0295
     44 H8         39.3881   -2.3660   33.5271 H           1 BC6       0.0295
     45 H9         38.0835   -0.6009   32.2765 H           1 BC6       0.0350
     46 H10        36.4177   -1.2661   30.5469 H           1 BC6       0.0235
     47 H11        35.8654   -1.6367   32.1679 H           1 BC6       0.0235
     48 H12        36.4831   -2.9377   31.1324 H           1 BC6       0.0235
     49 H13        38.4511    2.1553   36.9539 H           1 BC6       0.2240
     50 H14        40.2402    2.6454   35.4512 H           1 BC6       0.0366
     51 H15        42.2113    2.4337   33.8456 H           1 BC6       0.2475
     52 H16        43.5107    0.0318   35.5938 H           1 BC6       0.0358
     53 H17        39.8876   -1.0441   37.4462 H           1 BC6       0.0351
     54 H18        42.0179   -2.2333   38.0150 H           1 BC6       0.0424
     55 H19        43.4744   -1.8206   37.1586 H           1 BC6       0.0424
     56 H20        42.8638   -4.0104   36.4908 H           1 BC6       0.0321
     57 H21        40.6680   -4.7091   35.6151 H           1 BC6       0.0234
     58 H22        40.0640   -3.0527   35.7899 H           1 BC6       0.0234
     59 H23        40.5044   -3.9981   37.2195 H           1 BC6       0.0234
     60 H24        43.7035   -2.5554   34.6732 H           1 BC6       0.0295
     61 H25        42.0482   -2.1486   34.2186 H           1 BC6       0.0295
     62 H26        41.6032   -4.3578   33.4066 H           1 BC6       0.0623
     63 H27        43.4393   -7.3048   34.4606 H           1 BC6       0.0524
     64 H28        43.2347   -6.7543   32.7946 H           1 BC6       0.0524
     65 H29        41.8483   -6.7390   33.9229 H           1 BC6       0.0524
     66 H30        43.2252   -4.6618   31.5964 H           1 BC6       0.0637
     67 H31        45.0395   -4.5476   32.8922 H           1 BC6       0.2101
     68 H32        43.1069   -1.6631   32.1072 H           1 BC6       0.0398
     69 H33        43.3033   -1.4288   29.6334 H           1 BC6       0.0247
     70 H34        43.5176   -3.1836   29.4910 H           1 BC6       0.0247
     71 H35        44.7157   -2.1988   30.3477 H           1 BC6       0.0247
     72 H36        41.1275   -3.4597   30.8065 H           1 BC6       0.0246
     73 H37        41.6974    0.1589   31.0938 H           1 BC6       0.0376
     74 H38        41.2236   -0.2835   32.7539 H           1 BC6       0.0376
     75 H39        40.0637    0.4634   31.6615 H           1 BC6       0.0376
     76 H40        38.9960   -2.8580   30.4625 H           1 BC6       0.0799
     77 H41        39.2007   -0.1031   26.6686 H           1 BC6       0.1831
     78 H42        38.2184    0.5736   27.8536 H           1 BC6       0.1831
@<TRIPOS>BOND
     1     1     2   2
     2     2     3   1
     3     2    10  am
     4     3     4   1
     5     3     5   2
     6     5     6   1
     7     6     7   1
     8     7     8   1
     9     8     9   1
    10     8    32   1
    11    10    11   1
    12    11    12  ar
    13    11    17  ar
    14    12    13  ar
    15    13    14   1
    16    13    15  ar
    17    15    16  ar
    18    16    17  ar
    19    16    18   1
    20    18    19   1
    21    19    20   1
    22    19    21   1
    23    21    22   1
    24    22    23   1
    25    22    25   1
    26    23    24   1
    27    25    26   1
    28    25    27   1
    29    27    28   1
    30    27    29   1
    31    29    30   2
    32    30    31   1
    33    30    32   1
    34    32    33   1
    35    33    34   1
    36    34    35   2
    37    34    36  am
    38     4    37   1
    39     4    38   1
    40     4    39   1
    41     5    40   1
    42     6    41   1
    43     6    42   1
    44     7    43   1
    45     7    44   1
    46     8    45   1
    47     9    46   1
    48     9    47   1
    49     9    48   1
    50    10    49   1
    51    12    50   1
    52    14    51   1
    53    15    52   1
    54    17    53   1
    55    18    54   1
    56    18    55   1
    57    19    56   1
    58    20    57   1
    59    20    58   1
    60    20    59   1
    61    21    60   1
    62    21    61   1
    63    22    62   1
    64    24    63   1
    65    24    64   1
    66    24    65   1
    67    25    66   1
    68    26    67   1
    69    27    68   1
    70    28    69   1
    71    28    70   1
    72    28    71   1
    73    29    72   1
    74    31    73   1
    75    31    74   1
    76    31    75   1
    77    32    76   1
    78    36    77   1
    79    36    78   1
@<TRIPOS>SUBSTRUCTURE
     1  BC6      2

