@<TRIPOS>MOLECULE
2vw5_ligand_004
    78    79
SMALL
GAST_HUCK
****
This file was generated by PARSER (from files_GN.cpp)

@<TRIPOS>ATOM
      1 O37        37.0968   -8.6961   40.3673 O.2         1 BC6      -0.3848
      2 C21        38.0231   -8.7564   39.5715 C.2         1 BC6       0.2138
      3 C20        37.7312   -8.5857   38.2433 C.2         1 BC6       0.0175
      4 C36        36.7602   -9.5190   37.6627 C.3         1 BC6      -0.0331
      5 C19        38.3043   -7.5634   37.5619 C.2         1 BC6      -0.0677
      6 C18        38.1120   -7.2471   36.1499 C.3         1 BC6      -0.0250
      7 C17        39.2020   -6.3326   35.5185 C.3         1 BC6      -0.0362
      8 C16        39.2190   -4.8225   35.9331 C.3         1 BC6      -0.0026
      9 C35        37.9596   -4.0647   35.4087 C.3         1 BC6      -0.0578
     10 N22        39.2213   -8.8485   40.1380 N.am        1 BC6      -0.2407
     11 C3         40.4659   -8.9294   39.5856 C.ar        1 BC6       0.0494
     12 C4         41.4924   -8.2044   40.2244 C.ar        1 BC6      -0.0212
     13 C5         42.8168   -8.2656   39.7554 C.ar        1 BC6       0.0678
     14 O36        43.8017   -7.5344   40.3360 O.3         1 BC6      -0.3387
     15 C6         43.1289   -9.0993   38.6668 C.ar        1 BC6      -0.0476
     16 C1         42.1252   -9.8470   38.0105 C.ar        1 BC6      -0.0648
     17 C2         40.7928   -9.7547   38.4851 C.ar        1 BC6      -0.0516
     18 C7         42.4792  -10.7273   36.8555 C.3         1 BC6      -0.0222
     19 C8         42.2674  -10.1077   35.4310 C.3         1 BC6      -0.0322
     20 C25        40.7613   -9.8997   35.1265 C.3         1 BC6      -0.0605
     21 C9         43.1510   -8.8323   35.2155 C.3         1 BC6      -0.0197
     22 C10        43.0112   -8.0581   33.8670 C.3         1 BC6       0.0859
     23 O26        42.9086   -8.9117   32.7035 O.3         1 BC6      -0.3771
     24 C27        43.9514   -9.8404   32.3526 C.3         1 BC6       0.0369
     25 C11        44.0543   -6.9049   33.6678 C.3         1 BC6       0.0868
     26 O28        45.3718   -7.4525   33.7123 O.3         1 BC6      -0.3877
     27 C12        43.9681   -5.6956   34.6691 C.3         1 BC6      -0.0094
     28 C29        45.0413   -4.6185   34.3391 C.3         1 BC6      -0.0567
     29 C13        42.6432   -5.0552   34.6627 C.2         1 BC6      -0.1009
     30 C14        41.8273   -4.7639   35.6975 C.2         1 BC6      -0.0506
     31 C30        42.2123   -5.0437   37.0888 C.3         1 BC6      -0.0376
     32 C15        40.5239   -4.0888   35.4463 C.3         1 BC6       0.1158
     33 O31        40.6160   -2.7162   35.8796 O.3         1 BC6      -0.2488
     34 C32        40.5220   -2.0789   37.0792 C.2         1 BC6       0.3192
     35 O33        40.2321   -2.7111   38.2368 O.2         1 BC6      -0.3776
     36 N34        40.6903   -0.7493   37.1103 N.am        1 BC6      -0.2762
     37 H1         36.4924   -9.3019   36.6308 H           1 BC6       0.0348
     38 H2         35.8286   -9.5009   38.2323 H           1 BC6       0.0348
     39 H3         37.1654  -10.5325   37.6942 H           1 BC6       0.0348
     40 H4         38.9288   -6.9685   38.0608 H           1 BC6       0.0638
     41 H5         37.1215   -6.8103   36.0141 H           1 BC6       0.0437
     42 H6         38.1363   -8.1762   35.5759 H           1 BC6       0.0437
     43 H7         39.1151   -6.3979   34.4326 H           1 BC6       0.0295
     44 H8         40.1642   -6.7804   35.7705 H           1 BC6       0.0295
     45 H9         39.1836   -4.7770   37.0220 H           1 BC6       0.0350
     46 H10        37.9924   -3.0173   35.7083 H           1 BC6       0.0235
     47 H11        37.0468   -4.4921   35.8154 H           1 BC6       0.0235
     48 H12        37.9008   -4.1054   34.3206 H           1 BC6       0.0235
     49 H13        39.2170   -8.7852   41.1053 H           1 BC6       0.2240
     50 H14        41.2745   -7.6159   41.0333 H           1 BC6       0.0366
     51 H15        43.4040   -6.6657   40.5575 H           1 BC6       0.2475
     52 H16        44.1005   -9.1474   38.3464 H           1 BC6       0.0358
     53 H17        40.0614  -10.3196   38.0482 H           1 BC6       0.0351
     54 H18        41.9088  -11.6553   36.9345 H           1 BC6       0.0424
     55 H19        43.5273  -11.0250   36.9345 H           1 BC6       0.0424
     56 H20        42.6148  -10.8607   34.7181 H           1 BC6       0.0321
     57 H21        40.6079   -9.6291   34.0798 H           1 BC6       0.0234
     58 H22        40.3605   -9.1109   35.7552 H           1 BC6       0.0234
     59 H23        40.1987  -10.8166   35.3204 H           1 BC6       0.0234
     60 H24        44.1948   -9.1289   35.3416 H           1 BC6       0.0295
     61 H25        42.9219   -8.1254   36.0099 H           1 BC6       0.0295
     62 H26        42.0316   -7.5747   33.8985 H           1 BC6       0.0623
     63 H27        43.5546  -10.5044   31.5845 H           1 BC6       0.0524
     64 H28        44.2618  -10.4508   33.2015 H           1 BC6       0.0524
     65 H29        44.8167   -9.3199   31.9379 H           1 BC6       0.0524
     66 H30        43.9155   -6.5208   32.6542 H           1 BC6       0.0637
     67 H31        45.9080   -6.8821   33.1222 H           1 BC6       0.2101
     68 H32        44.2105   -6.0765   35.6588 H           1 BC6       0.0398
     69 H33        44.9364   -3.7439   34.9847 H           1 BC6       0.0247
     70 H34        44.9587   -4.2888   33.3015 H           1 BC6       0.0247
     71 H35        46.0446   -5.0202   34.4938 H           1 BC6       0.0247
     72 H36        42.3412   -4.7903   33.7496 H           1 BC6       0.0246
     73 H37        42.5618   -6.0689   37.2089 H           1 BC6       0.0376
     74 H38        41.3867   -4.9312   37.7858 H           1 BC6       0.0376
     75 H39        43.0007   -4.3561   37.3994 H           1 BC6       0.0376
     76 H40        40.3876   -3.9945   34.3632 H           1 BC6       0.0799
     77 H41        40.5978   -0.2631   37.9449 H           1 BC6       0.1831
     78 H42        40.9098   -0.2654   36.2983 H           1 BC6       0.1831
@<TRIPOS>BOND
     1     1     2   2
     2     2     3   1
     3     2    10  am
     4     3     4   1
     5     3     5   2
     6     5     6   1
     7     6     7   1
     8     7     8   1
     9     8     9   1
    10     8    32   1
    11    10    11   1
    12    11    12  ar
    13    11    17  ar
    14    12    13  ar
    15    13    14   1
    16    13    15  ar
    17    15    16  ar
    18    16    17  ar
    19    16    18   1
    20    18    19   1
    21    19    20   1
    22    19    21   1
    23    21    22   1
    24    22    23   1
    25    22    25   1
    26    23    24   1
    27    25    26   1
    28    25    27   1
    29    27    28   1
    30    27    29   1
    31    29    30   2
    32    30    31   1
    33    30    32   1
    34    32    33   1
    35    33    34   1
    36    34    35   2
    37    34    36  am
    38     4    37   1
    39     4    38   1
    40     4    39   1
    41     5    40   1
    42     6    41   1
    43     6    42   1
    44     7    43   1
    45     7    44   1
    46     8    45   1
    47     9    46   1
    48     9    47   1
    49     9    48   1
    50    10    49   1
    51    12    50   1
    52    14    51   1
    53    15    52   1
    54    17    53   1
    55    18    54   1
    56    18    55   1
    57    19    56   1
    58    20    57   1
    59    20    58   1
    60    20    59   1
    61    21    60   1
    62    21    61   1
    63    22    62   1
    64    24    63   1
    65    24    64   1
    66    24    65   1
    67    25    66   1
    68    26    67   1
    69    27    68   1
    70    28    69   1
    71    28    70   1
    72    28    71   1
    73    29    72   1
    74    31    73   1
    75    31    74   1
    76    31    75   1
    77    32    76   1
    78    36    77   1
    79    36    78   1
@<TRIPOS>SUBSTRUCTURE
     1  BC6      2

