@<TRIPOS>MOLECULE
2vw5_ligand_025
    78    79
SMALL
GAST_HUCK
****
This file was generated by PARSER (from files_GN.cpp)

@<TRIPOS>ATOM
      1 O37        40.1592   -6.0633   33.0950 O.2         1 BC6      -0.3848
      2 C21        40.6572   -6.6163   34.0651 C.2         1 BC6       0.2138
      3 C20        41.7649   -6.0155   34.5771 C.2         1 BC6       0.0175
      4 C36        42.9380   -5.9254   33.7079 C.3         1 BC6      -0.0331
      5 C19        41.6410   -5.4100   35.7772 C.2         1 BC6      -0.0677
      6 C18        42.5529   -4.4372   36.3510 C.3         1 BC6      -0.0250
      7 C17        42.2463   -4.0960   37.8361 C.3         1 BC6      -0.0362
      8 C16        40.8667   -3.4120   38.1477 C.3         1 BC6      -0.0026
      9 C35        40.8707   -1.9510   37.5912 C.3         1 BC6      -0.0578
     10 N22        39.9195   -7.5732   34.6175 N.am        1 BC6      -0.2407
     11 C3         40.1314   -8.2931   35.7570 C.ar        1 BC6       0.0494
     12 C4         39.0166   -8.5620   36.5763 C.ar        1 BC6      -0.0212
     13 C5         39.1623   -9.2706   37.7798 C.ar        1 BC6       0.0678
     14 O36        38.1054   -9.4851   38.6061 O.3         1 BC6      -0.3387
     15 C6         40.4346   -9.7553   38.1539 C.ar        1 BC6      -0.0476
     16 C1         41.5649   -9.5132   37.3440 C.ar        1 BC6      -0.0648
     17 C2         41.3984   -8.7917   36.1409 C.ar        1 BC6      -0.0516
     18 C7         42.9148   -9.9777   37.7739 C.3         1 BC6      -0.0222
     19 C8         43.7921   -8.8921   38.4793 C.3         1 BC6      -0.0322
     20 C25        44.3151   -7.8116   37.4954 C.3         1 BC6      -0.0605
     21 C9         43.0859   -8.2736   39.7363 C.3         1 BC6      -0.0197
     22 C10        43.9399   -7.3294   40.6365 C.3         1 BC6       0.0859
     23 O26        45.2430   -7.9508   40.7597 O.3         1 BC6      -0.3771
     24 C27        46.0465   -7.8378   41.9428 C.3         1 BC6       0.0369
     25 C11        43.2341   -6.9711   41.9886 C.3         1 BC6       0.0868
     26 O28        43.2571   -8.1279   42.8331 O.3         1 BC6      -0.3877
     27 C12        41.7739   -6.3855   41.9456 C.3         1 BC6      -0.0094
     28 C29        41.3555   -5.9758   43.3866 C.3         1 BC6      -0.0567
     29 C13        41.5905   -5.2125   41.0829 C.2         1 BC6      -0.1009
     30 C14        40.5412   -4.8516   40.2810 C.2         1 BC6      -0.0506
     31 C30        39.4107   -5.7320   39.9729 C.3         1 BC6      -0.0376
     32 C15        40.5108   -3.4885   39.6814 C.3         1 BC6       0.1158
     33 O31        39.3048   -2.8059   40.0742 O.3         1 BC6      -0.2488
     34 C32        38.2120   -2.3248   39.4246 C.2         1 BC6       0.3192
     35 O33        38.0059   -2.4281   38.0931 O.2         1 BC6      -0.3776
     36 N34        37.2623   -1.7115   40.1411 N.am        1 BC6      -0.2762
     37 H1         43.8401   -5.6032   34.2231 H           1 BC6       0.0348
     38 H2         42.7466   -5.2208   32.8957 H           1 BC6       0.0348
     39 H3         43.1551   -6.9044   33.2732 H           1 BC6       0.0348
     40 H4         40.8219   -5.6089   36.3098 H           1 BC6       0.0638
     41 H5         42.5454   -3.5302   35.7431 H           1 BC6       0.0437
     42 H6         43.5564   -4.8484   36.3290 H           1 BC6       0.0437
     43 H7         43.0423   -3.4519   38.2107 H           1 BC6       0.0295
     44 H8         42.3299   -5.0321   38.3844 H           1 BC6       0.0295
     45 H9         40.0901   -3.9571   37.6143 H           1 BC6       0.0350
     46 H10        40.0020   -1.3822   37.9140 H           1 BC6       0.0235
     47 H11        40.8645   -1.9636   36.4998 H           1 BC6       0.0235
     48 H12        41.7539   -1.4128   37.9321 H           1 BC6       0.0235
     49 H13        39.0475   -7.7030   34.2069 H           1 BC6       0.2240
     50 H14        38.0910   -8.2168   36.3094 H           1 BC6       0.0366
     51 H15        37.6793   -8.6123   38.7330 H           1 BC6       0.2475
     52 H16        40.5269  -10.2660   39.0353 H           1 BC6       0.0358
     53 H17        42.2039   -8.6346   35.5307 H           1 BC6       0.0351
     54 H18        43.4526  -10.3734   36.9088 H           1 BC6       0.0424
     55 H19        42.8057  -10.8212   38.4612 H           1 BC6       0.0424
     56 H20        44.6737   -9.4295   38.8386 H           1 BC6       0.0321
     57 H21        45.0823   -7.1965   37.9683 H           1 BC6       0.0234
     58 H22        43.5006   -7.1641   37.1786 H           1 BC6       0.0234
     59 H23        44.7596   -8.2778   36.6136 H           1 BC6       0.0234
     60 H24        42.7454   -9.1088   40.3549 H           1 BC6       0.0295
     61 H25        42.1981   -7.7253   39.4046 H           1 BC6       0.0295
     62 H26        44.0877   -6.3902   40.0966 H           1 BC6       0.0623
     63 H27        47.0777   -8.0772   41.6824 H           1 BC6       0.0524
     64 H28        45.7129   -8.5531   42.6966 H           1 BC6       0.0524
     65 H29        46.0226   -6.8289   42.3543 H           1 BC6       0.0524
     66 H30        43.8612   -6.2261   42.4814 H           1 BC6       0.0637
     67 H31        42.5400   -8.7134   42.5115 H           1 BC6       0.2101
     68 H32        41.1244   -7.2030   41.6429 H           1 BC6       0.0398
     69 H33        40.3896   -5.4800   43.3873 H           1 BC6       0.0247
     70 H34        42.0836   -5.2902   43.8278 H           1 BC6       0.0247
     71 H35        41.2728   -6.8613   44.0185 H           1 BC6       0.0247
     72 H36        42.2939   -4.5312   41.2124 H           1 BC6       0.0246
     73 H37        39.5695   -6.7776   40.2201 H           1 BC6       0.0376
     74 H38        39.1884   -5.7091   38.9042 H           1 BC6       0.0376
     75 H39        38.5232   -5.3922   40.5116 H           1 BC6       0.0376
     76 H40        41.2671   -2.8634   40.1523 H           1 BC6       0.0799
     77 H41        36.4617   -1.3802   39.7024 H           1 BC6       0.1831
     78 H42        37.3835   -1.5929   41.0961 H           1 BC6       0.1831
@<TRIPOS>BOND
     1     1     2   2
     2     2     3   1
     3     2    10  am
     4     3     4   1
     5     3     5   2
     6     5     6   1
     7     6     7   1
     8     7     8   1
     9     8     9   1
    10     8    32   1
    11    10    11   1
    12    11    12  ar
    13    11    17  ar
    14    12    13  ar
    15    13    14   1
    16    13    15  ar
    17    15    16  ar
    18    16    17  ar
    19    16    18   1
    20    18    19   1
    21    19    20   1
    22    19    21   1
    23    21    22   1
    24    22    23   1
    25    22    25   1
    26    23    24   1
    27    25    26   1
    28    25    27   1
    29    27    28   1
    30    27    29   1
    31    29    30   2
    32    30    31   1
    33    30    32   1
    34    32    33   1
    35    33    34   1
    36    34    35   2
    37    34    36  am
    38     4    37   1
    39     4    38   1
    40     4    39   1
    41     5    40   1
    42     6    41   1
    43     6    42   1
    44     7    43   1
    45     7    44   1
    46     8    45   1
    47     9    46   1
    48     9    47   1
    49     9    48   1
    50    10    49   1
    51    12    50   1
    52    14    51   1
    53    15    52   1
    54    17    53   1
    55    18    54   1
    56    18    55   1
    57    19    56   1
    58    20    57   1
    59    20    58   1
    60    20    59   1
    61    21    60   1
    62    21    61   1
    63    22    62   1
    64    24    63   1
    65    24    64   1
    66    24    65   1
    67    25    66   1
    68    26    67   1
    69    27    68   1
    70    28    69   1
    71    28    70   1
    72    28    71   1
    73    29    72   1
    74    31    73   1
    75    31    74   1
    76    31    75   1
    77    32    76   1
    78    36    77   1
    79    36    78   1
@<TRIPOS>SUBSTRUCTURE
     1  BC6      2

