@<TRIPOS>MOLECULE
2vw5_ligand_017
    78    79
SMALL
GAST_HUCK
****
This file was generated by PARSER (from files_GN.cpp)

@<TRIPOS>ATOM
      1 O37        43.9977   -1.8998   30.1282 O.2         1 BC6      -0.3848
      2 C21        43.4325   -2.3101   31.1337 C.2         1 BC6       0.2138
      3 C20        44.1575   -2.3456   32.3008 C.2         1 BC6       0.0175
      4 C36        45.3954   -3.1334   32.2755 C.3         1 BC6      -0.0331
      5 C19        43.7254   -1.6340   33.3689 C.2         1 BC6      -0.0677
      6 C18        44.3980   -1.4716   34.6515 C.3         1 BC6      -0.0250
      7 C17        43.5235   -0.8650   35.7929 C.3         1 BC6      -0.0362
      8 C16        42.9816    0.5967   35.5984 C.3         1 BC6      -0.0026
      9 C35        44.1448    1.6300   35.6532 C.3         1 BC6      -0.0578
     10 N22        42.1266   -2.5137   30.9835 N.am        1 BC6      -0.2407
     11 C3         41.1993   -2.9389   31.8950 C.ar        1 BC6       0.0494
     12 C4         39.9487   -2.2855   31.8653 C.ar        1 BC6      -0.0212
     13 C5         38.9201   -2.6565   32.7563 C.ar        1 BC6       0.0678
     14 O36        37.7255   -2.0086   32.7751 O.3         1 BC6      -0.3387
     15 C6         39.1371   -3.7259   33.6486 C.ar        1 BC6      -0.0476
     16 C1         40.3663   -4.4230   33.6650 C.ar        1 BC6      -0.0648
     17 C2         41.3958   -4.0072   32.7932 C.ar        1 BC6      -0.0516
     18 C7         40.5435   -5.6014   34.5641 C.3         1 BC6      -0.0222
     19 C8         41.1661   -5.3094   35.9694 C.3         1 BC6      -0.0322
     20 C25        42.6670   -4.9479   35.8522 C.3         1 BC6      -0.0605
     21 C9         40.3359   -4.2504   36.7628 C.3         1 BC6      -0.0197
     22 C10        40.8212   -3.8727   38.1939 C.3         1 BC6       0.0859
     23 O26        41.2287   -5.0243   38.9828 O.3         1 BC6      -0.3771
     24 C27        40.2751   -6.0170   39.4196 C.3         1 BC6       0.0369
     25 C11        39.8776   -2.8814   38.9641 C.3         1 BC6       0.0868
     26 O28        38.7145   -3.5725   39.4282 O.3         1 BC6      -0.3877
     27 C12        39.4198   -1.5846   38.1926 C.3         1 BC6      -0.0094
     28 C29        38.4189   -0.7483   39.0399 C.3         1 BC6      -0.0567
     29 C13        40.5544   -0.7339   37.8231 C.2         1 BC6      -0.1009
     30 C14        40.7249    0.0015   36.6965 C.2         1 BC6      -0.0506
     31 C30        39.8310   -0.1442   35.5444 C.3         1 BC6      -0.0376
     32 C15        41.8453    0.9752   36.6166 C.3         1 BC6       0.1158
     33 O31        41.3632    2.2885   36.2577 O.3         1 BC6      -0.2488
     34 C32        40.1721    2.9115   36.4813 C.2         1 BC6       0.3192
     35 O33        39.1202    2.2935   37.0733 O.2         1 BC6      -0.3776
     36 N34        40.0167    4.1786   36.0572 N.am        1 BC6      -0.2762
     37 H1         45.9497   -3.1177   33.2108 H           1 BC6       0.0348
     38 H2         46.0677   -2.7572   31.5002 H           1 BC6       0.0348
     39 H3         45.1578   -4.1762   32.0507 H           1 BC6       0.0348
     40 H4         42.8587   -1.1579   33.2728 H           1 BC6       0.0638
     41 H5         45.2947   -0.8695   34.5062 H           1 BC6       0.0437
     42 H6         44.7195   -2.4526   35.0038 H           1 BC6       0.0437
     43 H7         44.1017   -0.8986   36.7224 H           1 BC6       0.0295
     44 H8         42.6847   -1.5555   35.9280 H           1 BC6       0.0295
     45 H9         42.5422    0.6686   34.6014 H           1 BC6       0.0350
     46 H10        43.7724    2.6353   35.4689 H           1 BC6       0.0235
     47 H11        44.8877    1.4144   34.8896 H           1 BC6       0.0235
     48 H12        44.6260    1.6088   36.6294 H           1 BC6       0.0235
     49 H13        41.7704   -2.2525   30.1146 H           1 BC6       0.2240
     50 H14        39.7755   -1.5058   31.2082 H           1 BC6       0.0366
     51 H15        37.6749   -1.5101   31.9299 H           1 BC6       0.2475
     52 H16        38.3785   -4.0032   34.2725 H           1 BC6       0.0358
     53 H17        42.2843   -4.4963   32.7823 H           1 BC6       0.0351
     54 H18        41.1493   -6.3561   34.0475 H           1 BC6       0.0424
     55 H19        39.5716   -6.0805   34.7235 H           1 BC6       0.0424
     56 H20        41.1204   -6.2486   36.5242 H           1 BC6       0.0321
     57 H21        43.1243   -4.9183   36.8399 H           1 BC6       0.0234
     58 H22        42.7926   -3.9764   35.3779 H           1 BC6       0.0234
     59 H23        43.1993   -5.6976   35.2620 H           1 BC6       0.0234
     60 H24        39.3018   -4.5896   36.8315 H           1 BC6       0.0295
     61 H25        40.3472   -3.3325   36.1814 H           1 BC6       0.0295
     62 H26        41.7587   -3.3253   38.0609 H           1 BC6       0.0623
     63 H27        40.8317   -6.8969   39.7635 H           1 BC6       0.0524
     64 H28        39.6002   -6.3193   38.6099 H           1 BC6       0.0524
     65 H29        39.6905   -5.6473   40.2686 H           1 BC6       0.0524
     66 H30        40.4343   -2.5726   39.8617 H           1 BC6       0.0637
     67 H31        38.5588   -3.2219   40.3437 H           1 BC6       0.2101
     68 H32        38.8640   -1.9070   37.3112 H           1 BC6       0.0398
     69 H33        38.1846    0.1988   38.5449 H           1 BC6       0.0247
     70 H34        38.8379   -0.5383   40.0270 H           1 BC6       0.0247
     71 H35        37.4758   -1.2900   39.1702 H           1 BC6       0.0247
     72 H36        41.2126   -0.6041   38.5480 H           1 BC6       0.0246
     73 H37        38.8005    0.0806   35.8357 H           1 BC6       0.0376
     74 H38        39.8807   -1.1643   35.1567 H           1 BC6       0.0376
     75 H39        40.0927    0.5303   34.7244 H           1 BC6       0.0376
     76 H40        42.3187    1.0916   37.5918 H           1 BC6       0.0799
     77 H41        39.1601    4.6339   36.1673 H           1 BC6       0.1831
     78 H42        40.7640    4.6448   35.6390 H           1 BC6       0.1831
@<TRIPOS>BOND
     1     1     2   2
     2     2     3   1
     3     2    10  am
     4     3     4   1
     5     3     5   2
     6     5     6   1
     7     6     7   1
     8     7     8   1
     9     8     9   1
    10     8    32   1
    11    10    11   1
    12    11    12  ar
    13    11    17  ar
    14    12    13  ar
    15    13    14   1
    16    13    15  ar
    17    15    16  ar
    18    16    17  ar
    19    16    18   1
    20    18    19   1
    21    19    20   1
    22    19    21   1
    23    21    22   1
    24    22    23   1
    25    22    25   1
    26    23    24   1
    27    25    26   1
    28    25    27   1
    29    27    28   1
    30    27    29   1
    31    29    30   2
    32    30    31   1
    33    30    32   1
    34    32    33   1
    35    33    34   1
    36    34    35   2
    37    34    36  am
    38     4    37   1
    39     4    38   1
    40     4    39   1
    41     5    40   1
    42     6    41   1
    43     6    42   1
    44     7    43   1
    45     7    44   1
    46     8    45   1
    47     9    46   1
    48     9    47   1
    49     9    48   1
    50    10    49   1
    51    12    50   1
    52    14    51   1
    53    15    52   1
    54    17    53   1
    55    18    54   1
    56    18    55   1
    57    19    56   1
    58    20    57   1
    59    20    58   1
    60    20    59   1
    61    21    60   1
    62    21    61   1
    63    22    62   1
    64    24    63   1
    65    24    64   1
    66    24    65   1
    67    25    66   1
    68    26    67   1
    69    27    68   1
    70    28    69   1
    71    28    70   1
    72    28    71   1
    73    29    72   1
    74    31    73   1
    75    31    74   1
    76    31    75   1
    77    32    76   1
    78    36    77   1
    79    36    78   1
@<TRIPOS>SUBSTRUCTURE
     1  BC6      2

