@<TRIPOS>MOLECULE
2vw5_ligand_018
    78    79
SMALL
GAST_HUCK
****
This file was generated by PARSER (from files_GN.cpp)

@<TRIPOS>ATOM
      1 O37        43.9987   -0.7235   36.7462 O.2         1 BC6      -0.3848
      2 C21        42.9722   -1.3604   36.5545 C.2         1 BC6       0.2138
      3 C20        43.0716   -2.4731   35.7522 C.2         1 BC6       0.0175
      4 C36        43.5069   -2.2270   34.3753 C.3         1 BC6      -0.0331
      5 C19        42.8531   -3.7026   36.2785 C.2         1 BC6      -0.0677
      6 C18        43.1008   -4.9829   35.6117 C.3         1 BC6      -0.0250
      7 C17        42.5615   -6.2453   36.3545 C.3         1 BC6      -0.0362
      8 C16        43.2339   -6.6346   37.7243 C.3         1 BC6      -0.0026
      9 C35        44.6347   -7.2837   37.4884 C.3         1 BC6      -0.0578
     10 N22        41.9235   -0.9102   37.2289 N.am        1 BC6      -0.2407
     11 C3         40.6605   -1.4132   37.3339 C.ar        1 BC6       0.0494
     12 C4         40.0613   -1.3626   38.6109 C.ar        1 BC6      -0.0212
     13 C5         38.7383   -1.7699   38.8002 C.ar        1 BC6       0.0678
     14 O36        38.2077   -1.7259   40.0399 O.3         1 BC6      -0.3387
     15 C6         37.9954   -2.2569   37.7098 C.ar        1 BC6      -0.0476
     16 C1         38.5853   -2.3771   36.4211 C.ar        1 BC6      -0.0648
     17 C2         39.9069   -1.8971   36.2460 C.ar        1 BC6      -0.0516
     18 C7         37.8296   -2.9906   35.2884 C.3         1 BC6      -0.0222
     19 C8         38.2559   -4.4465   34.8971 C.3         1 BC6      -0.0322
     20 C25        39.6955   -4.5043   34.3135 C.3         1 BC6      -0.0605
     21 C9         38.0296   -5.4925   36.0417 C.3         1 BC6      -0.0197
     22 C10        38.2867   -7.0004   35.7076 C.3         1 BC6       0.0859
     23 O26        37.5864   -7.2678   34.4720 O.3         1 BC6      -0.3771
     24 C27        37.7176   -8.5608   33.8596 C.3         1 BC6       0.0369
     25 C11        37.8638   -7.9851   36.8590 C.3         1 BC6       0.0868
     26 O28        36.4451   -7.9672   36.9707 O.3         1 BC6      -0.3877
     27 C12        38.5200   -7.7543   38.2687 C.3         1 BC6      -0.0094
     28 C29        37.9431   -8.7096   39.3552 C.3         1 BC6      -0.0567
     29 C13        39.9676   -7.9519   38.2248 C.2         1 BC6      -0.1009
     30 C14        40.9364   -7.1761   38.7648 C.2         1 BC6      -0.0506
     31 C30        40.6316   -5.9375   39.4848 C.3         1 BC6      -0.0376
     32 C15        42.3513   -7.5911   38.6125 C.3         1 BC6       0.1158
     33 O31        42.9640   -7.7098   39.9143 O.3         1 BC6      -0.2488
     34 C32        42.4850   -8.3269   41.0285 C.2         1 BC6       0.3192
     35 O33        41.2465   -8.8980   41.0525 O.2         1 BC6      -0.3776
     36 N34        43.2236   -8.3385   42.1423 N.am        1 BC6      -0.2762
     37 H1         43.5501   -3.1205   33.7567 H           1 BC6       0.0348
     38 H2         44.5045   -1.7832   34.3690 H           1 BC6       0.0348
     39 H3         42.8148   -1.5333   33.8921 H           1 BC6       0.0348
     40 H4         42.5281   -3.7519   37.2192 H           1 BC6       0.0638
     41 H5         44.1704   -5.0891   35.4267 H           1 BC6       0.0437
     42 H6         42.6089   -4.9786   34.6417 H           1 BC6       0.0437
     43 H7         42.6447   -7.1028   35.6781 H           1 BC6       0.0295
     44 H8         41.4956   -6.0738   36.4992 H           1 BC6       0.0295
     45 H9         43.3907   -5.7158   38.2948 H           1 BC6       0.0350
     46 H10        45.1284   -7.4927   38.4390 H           1 BC6       0.0235
     47 H11        45.2888   -6.6284   36.9127 H           1 BC6       0.0235
     48 H12        44.5319   -8.2245   36.9410 H           1 BC6       0.0235
     49 H13        42.0927   -0.1468   37.7999 H           1 BC6       0.2240
     50 H14        40.5999   -1.0173   39.4141 H           1 BC6       0.0366
     51 H15        37.4406   -1.1081   40.0080 H           1 BC6       0.2475
     52 H16        37.0221   -2.5428   37.8547 H           1 BC6       0.0358
     53 H17        40.3157   -1.8824   35.3125 H           1 BC6       0.0351
     54 H18        37.9251   -2.3396   34.4181 H           1 BC6       0.0424
     55 H19        36.7643   -3.0143   35.5271 H           1 BC6       0.0424
     56 H20        37.5827   -4.7227   34.0842 H           1 BC6       0.0321
     57 H21        39.9147   -5.4818   33.8855 H           1 BC6       0.0234
     58 H22        40.4034   -4.3135   35.1063 H           1 BC6       0.0234
     59 H23        39.8241   -3.7579   33.5283 H           1 BC6       0.0234
     60 H24        36.9930   -5.4000   36.3582 H           1 BC6       0.0295
     61 H25        38.6648   -5.2043   36.8799 H           1 BC6       0.0295
     62 H26        39.3615   -7.1329   35.5352 H           1 BC6       0.0623
     63 H27        37.3461   -8.4972   32.8342 H           1 BC6       0.0524
     64 H28        37.1216   -9.2983   34.3982 H           1 BC6       0.0524
     65 H29        38.7590   -8.8843   33.8156 H           1 BC6       0.0524
     66 H30        38.1248   -9.0008   36.5395 H           1 BC6       0.0637
     67 H31        36.1194   -8.5013   36.2093 H           1 BC6       0.2101
     68 H32        38.2752   -6.7422   38.5952 H           1 BC6       0.0398
     69 H33        38.4246   -8.5303   40.3214 H           1 BC6       0.0247
     70 H34        38.1010   -9.7540   39.0752 H           1 BC6       0.0247
     71 H35        36.8722   -8.5453   39.4793 H           1 BC6       0.0247
     72 H36        40.2476   -8.7895   37.7737 H           1 BC6       0.0246
     73 H37        39.9584   -6.1583   40.3152 H           1 BC6       0.0376
     74 H38        40.1615   -5.2056   38.8256 H           1 BC6       0.0376
     75 H39        41.5268   -5.4683   39.8995 H           1 BC6       0.0376
     76 H40        42.4187   -8.5844   38.1557 H           1 BC6       0.0799
     77 H41        42.8829   -8.7680   42.9384 H           1 BC6       0.1831
     78 H42        44.1099   -7.9402   42.1584 H           1 BC6       0.1831
@<TRIPOS>BOND
     1     1     2   2
     2     2     3   1
     3     2    10  am
     4     3     4   1
     5     3     5   2
     6     5     6   1
     7     6     7   1
     8     7     8   1
     9     8     9   1
    10     8    32   1
    11    10    11   1
    12    11    12  ar
    13    11    17  ar
    14    12    13  ar
    15    13    14   1
    16    13    15  ar
    17    15    16  ar
    18    16    17  ar
    19    16    18   1
    20    18    19   1
    21    19    20   1
    22    19    21   1
    23    21    22   1
    24    22    23   1
    25    22    25   1
    26    23    24   1
    27    25    26   1
    28    25    27   1
    29    27    28   1
    30    27    29   1
    31    29    30   2
    32    30    31   1
    33    30    32   1
    34    32    33   1
    35    33    34   1
    36    34    35   2
    37    34    36  am
    38     4    37   1
    39     4    38   1
    40     4    39   1
    41     5    40   1
    42     6    41   1
    43     6    42   1
    44     7    43   1
    45     7    44   1
    46     8    45   1
    47     9    46   1
    48     9    47   1
    49     9    48   1
    50    10    49   1
    51    12    50   1
    52    14    51   1
    53    15    52   1
    54    17    53   1
    55    18    54   1
    56    18    55   1
    57    19    56   1
    58    20    57   1
    59    20    58   1
    60    20    59   1
    61    21    60   1
    62    21    61   1
    63    22    62   1
    64    24    63   1
    65    24    64   1
    66    24    65   1
    67    25    66   1
    68    26    67   1
    69    27    68   1
    70    28    69   1
    71    28    70   1
    72    28    71   1
    73    29    72   1
    74    31    73   1
    75    31    74   1
    76    31    75   1
    77    32    76   1
    78    36    77   1
    79    36    78   1
@<TRIPOS>SUBSTRUCTURE
     1  BC6      2

