@<TRIPOS>MOLECULE
2vw5_ligand_010
    78    79
SMALL
GAST_HUCK
****
This file was generated by PARSER (from files_GN.cpp)

@<TRIPOS>ATOM
      1 O37        43.7195   -9.9486   35.0086 O.2         1 BC6      -0.3848
      2 C21        43.0683   -8.9139   34.9481 C.2         1 BC6       0.2138
      3 C20        41.7563   -8.9791   35.3531 C.2         1 BC6       0.0175
      4 C36        40.9035   -9.9526   34.6726 C.3         1 BC6      -0.0331
      5 C19        41.3573   -8.2271   36.4090 C.2         1 BC6      -0.0677
      6 C18        40.1255   -8.3946   37.1792 C.3         1 BC6      -0.0250
      7 C17        39.8660   -7.3481   38.3027 C.3         1 BC6      -0.0362
      8 C16        40.9849   -7.1850   39.3945 C.3         1 BC6      -0.0026
      9 C35        40.8879   -8.3268   40.4508 C.3         1 BC6      -0.0578
     10 N22        43.8026   -7.8496   34.6456 N.am        1 BC6      -0.2407
     11 C3         43.4721   -6.5284   34.4954 C.ar        1 BC6       0.0494
     12 C4         44.4848   -5.5863   34.7653 C.ar        1 BC6      -0.0212
     13 C5         44.2478   -4.2055   34.6165 C.ar        1 BC6       0.0678
     14 O36        45.2504   -3.3327   34.9019 O.3         1 BC6      -0.3387
     15 C6         42.9913   -3.7612   34.1641 C.ar        1 BC6      -0.0476
     16 C1         41.9673   -4.6825   33.8439 C.ar        1 BC6      -0.0648
     17 C2         42.2315   -6.0627   34.0054 C.ar        1 BC6      -0.0516
     18 C7         40.6618   -4.2085   33.2950 C.3         1 BC6      -0.0222
     19 C8         39.4309   -4.2386   34.2708 C.3         1 BC6      -0.0322
     20 C25        39.1602   -5.6512   34.8583 C.3         1 BC6      -0.0605
     21 C9         39.5728   -3.1417   35.3768 C.3         1 BC6      -0.0197
     22 C10        38.4943   -3.1523   36.5147 C.3         1 BC6       0.0859
     23 O26        37.1242   -3.1347   36.0430 O.3         1 BC6      -0.3771
     24 C27        36.7353   -2.2280   34.9882 C.3         1 BC6       0.0369
     25 C11        38.7379   -2.0959   37.6331 C.3         1 BC6       0.0868
     26 O28        38.8142   -0.8021   37.0200 O.3         1 BC6      -0.3877
     27 C12        39.9992   -2.3382   38.5373 C.3         1 BC6      -0.0094
     28 C29        40.0652   -1.2525   39.6505 C.3         1 BC6      -0.0567
     29 C13        40.0452   -3.6598   39.1892 C.2         1 BC6      -0.1009
     30 C14        41.0338   -4.5951   39.1504 C.2         1 BC6      -0.0506
     31 C30        42.1645   -4.4809   38.2244 C.3         1 BC6      -0.0376
     32 C15        40.9907   -5.7671   40.0665 C.3         1 BC6       0.1158
     33 O31        42.1738   -5.6794   40.8878 O.3         1 BC6      -0.2488
     34 C32        42.2884   -5.5615   42.2322 C.2         1 BC6       0.3192
     35 O33        41.2119   -5.5217   43.0534 O.2         1 BC6      -0.3776
     36 N34        43.5192   -5.4964   42.7598 N.am        1 BC6      -0.2762
     37 H1         39.8686   -9.9518   35.0129 H           1 BC6       0.0348
     38 H2         41.2892  -10.9670   34.8156 H           1 BC6       0.0348
     39 H3         40.8874   -9.7358   33.6004 H           1 BC6       0.0348
     40 H4         41.9783   -7.5220   36.7184 H           1 BC6       0.0638
     41 H5         40.1275   -9.3942   37.6215 H           1 BC6       0.0437
     42 H6         39.2719   -8.3323   36.4986 H           1 BC6       0.0437
     43 H7         38.9217   -7.5955   38.7983 H           1 BC6       0.0295
     44 H8         39.6960   -6.3913   37.8145 H           1 BC6       0.0295
     45 H9         41.9589   -7.3163   38.9278 H           1 BC6       0.0350
     46 H10        41.7206   -8.2706   41.1538 H           1 BC6       0.0235
     47 H11        40.9310   -9.3026   39.9660 H           1 BC6       0.0235
     48 H12        39.9539   -8.2567   41.0107 H           1 BC6       0.0235
     49 H13        44.7552   -8.0281   34.5658 H           1 BC6       0.2240
     50 H14        45.4092   -5.9007   35.0928 H           1 BC6       0.0366
     51 H15        44.8468   -2.4377   34.8758 H           1 BC6       0.2475
     52 H16        42.8342   -2.7577   34.0559 H           1 BC6       0.0358
     53 H17        41.5332   -6.7444   33.7369 H           1 BC6       0.0351
     54 H18        40.4208   -4.8103   32.4170 H           1 BC6       0.0424
     55 H19        40.7650   -3.1865   32.9163 H           1 BC6       0.0424
     56 H20        38.5460   -3.9631   33.6851 H           1 BC6       0.0321
     57 H21        38.1707   -5.7051   35.3176 H           1 BC6       0.0234
     58 H22        39.9143   -5.8769   35.6088 H           1 BC6       0.0234
     59 H23        39.2010   -6.4154   34.0875 H           1 BC6       0.0234
     60 H24        39.5577   -2.1558   34.8932 H           1 BC6       0.0295
     61 H25        40.5621   -3.2326   35.8395 H           1 BC6       0.0295
     62 H26        38.5662   -4.1198   37.0144 H           1 BC6       0.0623
     63 H27        35.6525   -2.3534   34.8237 H           1 BC6       0.0524
     64 H28        37.2643   -2.4726   34.0518 H           1 BC6       0.0524
     65 H29        36.9169   -1.1708   35.2572 H           1 BC6       0.0524
     66 H30        37.8473   -2.0919   38.2750 H           1 BC6       0.0637
     67 H31        39.0562   -0.1666   37.7278 H           1 BC6       0.2101
     68 H32        40.8786   -2.1792   37.9156 H           1 BC6       0.0398
     69 H33        40.8707   -1.4606   40.3481 H           1 BC6       0.0247
     70 H34        39.1268   -1.2003   40.2108 H           1 BC6       0.0247
     71 H35        40.2650   -0.2766   39.2171 H           1 BC6       0.0247
     72 H36        39.2735   -3.8480   39.7853 H           1 BC6       0.0246
     73 H37        42.6821   -3.5305   38.3467 H           1 BC6       0.0376
     74 H38        41.8105   -4.5660   37.1999 H           1 BC6       0.0376
     75 H39        42.9127   -5.2620   38.3683 H           1 BC6       0.0376
     76 H40        40.1048   -5.7205   40.7094 H           1 BC6       0.0799
     77 H41        43.6378   -5.4139   43.7200 H           1 BC6       0.1831
     78 H42        44.2974   -5.5206   42.1791 H           1 BC6       0.1831
@<TRIPOS>BOND
     1     1     2   2
     2     2     3   1
     3     2    10  am
     4     3     4   1
     5     3     5   2
     6     5     6   1
     7     6     7   1
     8     7     8   1
     9     8     9   1
    10     8    32   1
    11    10    11   1
    12    11    12  ar
    13    11    17  ar
    14    12    13  ar
    15    13    14   1
    16    13    15  ar
    17    15    16  ar
    18    16    17  ar
    19    16    18   1
    20    18    19   1
    21    19    20   1
    22    19    21   1
    23    21    22   1
    24    22    23   1
    25    22    25   1
    26    23    24   1
    27    25    26   1
    28    25    27   1
    29    27    28   1
    30    27    29   1
    31    29    30   2
    32    30    31   1
    33    30    32   1
    34    32    33   1
    35    33    34   1
    36    34    35   2
    37    34    36  am
    38     4    37   1
    39     4    38   1
    40     4    39   1
    41     5    40   1
    42     6    41   1
    43     6    42   1
    44     7    43   1
    45     7    44   1
    46     8    45   1
    47     9    46   1
    48     9    47   1
    49     9    48   1
    50    10    49   1
    51    12    50   1
    52    14    51   1
    53    15    52   1
    54    17    53   1
    55    18    54   1
    56    18    55   1
    57    19    56   1
    58    20    57   1
    59    20    58   1
    60    20    59   1
    61    21    60   1
    62    21    61   1
    63    22    62   1
    64    24    63   1
    65    24    64   1
    66    24    65   1
    67    25    66   1
    68    26    67   1
    69    27    68   1
    70    28    69   1
    71    28    70   1
    72    28    71   1
    73    29    72   1
    74    31    73   1
    75    31    74   1
    76    31    75   1
    77    32    76   1
    78    36    77   1
    79    36    78   1
@<TRIPOS>SUBSTRUCTURE
     1  BC6      2

