@<TRIPOS>MOLECULE
2vw5_ligand_014
    78    79
SMALL
GAST_HUCK
****
This file was generated by PARSER (from files_GN.cpp)

@<TRIPOS>ATOM
      1 O37        43.5827  -13.0269   32.9819 O.2         1 BC6      -0.3848
      2 C21        43.3678  -12.2403   33.8944 C.2         1 BC6       0.2138
      3 C20        42.8556  -11.0243   33.5456 C.2         1 BC6       0.0175
      4 C36        43.7128  -10.1659   32.7288 C.3         1 BC6      -0.0331
      5 C19        41.5880  -10.7296   33.9142 C.2         1 BC6      -0.0677
      6 C18        40.8201   -9.5624   33.4960 C.3         1 BC6      -0.0250
      7 C17        39.4463   -9.3922   34.2045 C.3         1 BC6      -0.0362
      8 C16        38.3750  -10.5163   33.9577 C.3         1 BC6      -0.0026
      9 C35        37.8826  -10.4779   32.4826 C.3         1 BC6      -0.0578
     10 N22        43.4983  -12.7502   35.1124 N.am        1 BC6      -0.2407
     11 C3         43.2563  -12.2222   36.3522 C.ar        1 BC6       0.0494
     12 C4         42.9406  -13.1600   37.3547 C.ar        1 BC6      -0.0212
     13 C5         42.6891  -12.7471   38.6767 C.ar        1 BC6       0.0678
     14 O36        42.4103  -13.6648   39.6308 O.3         1 BC6      -0.3387
     15 C6         42.7863  -11.3856   39.0118 C.ar        1 BC6      -0.0476
     16 C1         43.1629  -10.4250   38.0452 C.ar        1 BC6      -0.0648
     17 C2         43.3887  -10.8580   36.7156 C.ar        1 BC6      -0.0516
     18 C7         43.3857   -9.0055   38.4539 C.3         1 BC6      -0.0222
     19 C8         42.2480   -8.0008   38.0937 C.3         1 BC6      -0.0322
     20 C25        42.2145   -7.6802   36.5787 C.3         1 BC6      -0.0605
     21 C9         40.8679   -8.4670   38.6678 C.3         1 BC6      -0.0197
     22 C10        39.6460   -7.5498   38.3482 C.3         1 BC6       0.0859
     23 O26        39.9634   -6.1375   38.4869 O.3         1 BC6      -0.3771
     24 C27        40.0715   -5.5481   39.8035 C.3         1 BC6       0.0369
     25 C11        38.3097   -7.9547   39.0623 C.3         1 BC6       0.0868
     26 O28        38.5375   -7.9329   40.4772 O.3         1 BC6      -0.3877
     27 C12        37.6692   -9.3240   38.6684 C.3         1 BC6      -0.0094
     28 C29        36.3717   -9.6242   39.4727 C.3         1 BC6      -0.0567
     29 C13        37.3521   -9.4194   37.2390 C.2         1 BC6      -0.1009
     30 C14        37.5951  -10.4670   36.4127 C.2         1 BC6      -0.0506
     31 C30        38.2820  -11.6536   36.9108 C.3         1 BC6      -0.0376
     32 C15        37.1834  -10.4315   34.9870 C.3         1 BC6       0.1158
     33 O31        36.1242  -11.3944   34.7945 O.3         1 BC6      -0.2488
     34 C32        36.0819  -12.7232   34.5148 C.2         1 BC6       0.3192
     35 O33        37.1899  -13.4639   34.2976 O.2         1 BC6      -0.3776
     36 N34        34.8927  -13.3424   34.4227 N.am        1 BC6      -0.2762
     37 H1         43.2704   -9.2003   32.4869 H           1 BC6       0.0348
     38 H2         43.9497  -10.6582   31.7817 H           1 BC6       0.0348
     39 H3         44.6486   -9.9691   33.2595 H           1 BC6       0.0348
     40 H4         41.1216  -11.3725   34.5119 H           1 BC6       0.0638
     41 H5         40.6777   -9.6091   32.4138 H           1 BC6       0.0437
     42 H6         41.3995   -8.6630   33.7147 H           1 BC6       0.0437
     43 H7         39.0251   -8.4281   33.9062 H           1 BC6       0.0295
     44 H8         39.6584   -9.3181   35.2695 H           1 BC6       0.0295
     45 H9         38.8571  -11.4867   34.0958 H           1 BC6       0.0350
     46 H10        37.1351  -11.2501   32.3092 H           1 BC6       0.0235
     47 H11        38.7030  -10.6656   31.7911 H           1 BC6       0.0235
     48 H12        37.4477   -9.5057   32.2511 H           1 BC6       0.0235
     49 H13        43.7388  -13.6943   35.1213 H           1 BC6       0.2240
     50 H14        42.8893  -14.1571   37.1296 H           1 BC6       0.0366
     51 H15        43.1752  -14.2851   39.6152 H           1 BC6       0.2475
     52 H16        42.6204  -11.1079   39.9832 H           1 BC6       0.0358
     53 H17        43.7112  -10.1873   36.0173 H           1 BC6       0.0351
     54 H18        44.3254   -8.6599   38.0213 H           1 BC6       0.0424
     55 H19        43.5327   -8.9570   39.5355 H           1 BC6       0.0424
     56 H20        42.4972   -7.0611   38.5948 H           1 BC6       0.0321
     57 H21        41.5615   -6.8324   36.3686 H           1 BC6       0.0234
     58 H22        41.8515   -8.5415   36.0296 H           1 BC6       0.0234
     59 H23        43.2097   -7.4236   36.2158 H           1 BC6       0.0234
     60 H24        40.9584   -8.5531   39.7516 H           1 BC6       0.0295
     61 H25        40.6360   -9.4567   38.2817 H           1 BC6       0.0295
     62 H26        39.4521   -7.6516   37.2800 H           1 BC6       0.0623
     63 H27        40.5534   -4.5675   39.7052 H           1 BC6       0.0524
     64 H28        40.6730   -6.1582   40.4895 H           1 BC6       0.0524
     65 H29        39.0669   -5.3959   40.2275 H           1 BC6       0.0524
     66 H30        37.5967   -7.1611   38.8268 H           1 BC6       0.0637
     67 H31        37.8105   -7.3617   40.8355 H           1 BC6       0.2101
     68 H32        38.3815  -10.0846   38.9696 H           1 BC6       0.0398
     69 H33        35.9508  -10.5905   39.1815 H           1 BC6       0.0247
     70 H34        35.6115   -8.8540   39.3054 H           1 BC6       0.0247
     71 H35        36.5802   -9.6705   40.5462 H           1 BC6       0.0247
     72 H36        36.8540   -8.6429   36.8586 H           1 BC6       0.0246
     73 H37        37.7484  -12.0706   37.7669 H           1 BC6       0.0376
     74 H38        39.2944  -11.3847   37.2103 H           1 BC6       0.0376
     75 H39        38.3624  -12.4413   36.1707 H           1 BC6       0.0376
     76 H40        36.6950   -9.4762   34.7691 H           1 BC6       0.0799
     77 H41        34.8635  -14.2962   34.2234 H           1 BC6       0.1831
     78 H42        34.0519  -12.8624   34.5374 H           1 BC6       0.1831
@<TRIPOS>BOND
     1     1     2   2
     2     2     3   1
     3     2    10  am
     4     3     4   1
     5     3     5   2
     6     5     6   1
     7     6     7   1
     8     7     8   1
     9     8     9   1
    10     8    32   1
    11    10    11   1
    12    11    12  ar
    13    11    17  ar
    14    12    13  ar
    15    13    14   1
    16    13    15  ar
    17    15    16  ar
    18    16    17  ar
    19    16    18   1
    20    18    19   1
    21    19    20   1
    22    19    21   1
    23    21    22   1
    24    22    23   1
    25    22    25   1
    26    23    24   1
    27    25    26   1
    28    25    27   1
    29    27    28   1
    30    27    29   1
    31    29    30   2
    32    30    31   1
    33    30    32   1
    34    32    33   1
    35    33    34   1
    36    34    35   2
    37    34    36  am
    38     4    37   1
    39     4    38   1
    40     4    39   1
    41     5    40   1
    42     6    41   1
    43     6    42   1
    44     7    43   1
    45     7    44   1
    46     8    45   1
    47     9    46   1
    48     9    47   1
    49     9    48   1
    50    10    49   1
    51    12    50   1
    52    14    51   1
    53    15    52   1
    54    17    53   1
    55    18    54   1
    56    18    55   1
    57    19    56   1
    58    20    57   1
    59    20    58   1
    60    20    59   1
    61    21    60   1
    62    21    61   1
    63    22    62   1
    64    24    63   1
    65    24    64   1
    66    24    65   1
    67    25    66   1
    68    26    67   1
    69    27    68   1
    70    28    69   1
    71    28    70   1
    72    28    71   1
    73    29    72   1
    74    31    73   1
    75    31    74   1
    76    31    75   1
    77    32    76   1
    78    36    77   1
    79    36    78   1
@<TRIPOS>SUBSTRUCTURE
     1  BC6      2

