@<TRIPOS>MOLECULE
2vw5_ligand_030
    78    79
SMALL
GAST_HUCK
****
This file was generated by PARSER (from files_GN.cpp)

@<TRIPOS>ATOM
      1 O37        41.9212   -7.0652   40.2470 O.2         1 BC6      -0.3848
      2 C21        40.7502   -7.3759   40.1077 C.2         1 BC6       0.2138
      3 C20        40.0104   -6.6446   39.2042 C.2         1 BC6       0.0175
      4 C36        39.8818   -5.2098   39.4829 C.3         1 BC6      -0.0331
      5 C19        39.5146   -7.2570   38.1124 C.2         1 BC6      -0.0677
      6 C18        38.8618   -6.6170   36.9696 C.3         1 BC6      -0.0250
      7 C17        38.1705   -7.5859   35.9683 C.3         1 BC6      -0.0362
      8 C16        39.0915   -8.5951   35.2022 C.3         1 BC6      -0.0026
      9 C35        39.9843   -7.8505   34.1731 C.3         1 BC6      -0.0578
     10 N22        40.3991   -8.4931   40.7285 N.am        1 BC6      -0.2407
     11 C3         39.2107   -9.1575   40.7719 C.ar        1 BC6       0.0494
     12 C4         39.2679  -10.5652   40.8863 C.ar        1 BC6      -0.0212
     13 C5         38.0915  -11.3280   40.9936 C.ar        1 BC6       0.0678
     14 O36        38.1597  -12.6705   41.1178 O.3         1 BC6      -0.3387
     15 C6         36.8474  -10.6885   41.0106 C.ar        1 BC6      -0.0476
     16 C1         36.7636   -9.2851   40.9343 C.ar        1 BC6      -0.0648
     17 C2         37.9482   -8.5310   40.8069 C.ar        1 BC6      -0.0516
     18 C7         35.4335   -8.6131   40.9942 C.3         1 BC6      -0.0222
     19 C8         34.8728   -8.2162   39.5985 C.3         1 BC6      -0.0322
     20 C25        35.5956   -7.0000   38.9909 C.3         1 BC6      -0.0605
     21 C9         34.7977   -9.4663   38.6537 C.3         1 BC6      -0.0197
     22 C10        34.0087   -9.3046   37.3271 C.3         1 BC6       0.0859
     23 O26        32.7048   -8.6520   37.5125 O.3         1 BC6      -0.3771
     24 C27        31.6708   -9.0588   38.4282 C.3         1 BC6       0.0369
     25 C11        33.8556  -10.5980   36.4347 C.3         1 BC6       0.0868
     26 O28        33.0551  -11.5076   37.1832 O.3         1 BC6      -0.3877
     27 C12        35.1587  -11.3548   36.0140 C.3         1 BC6      -0.0094
     28 C29        34.8173  -12.6156   35.1456 C.3         1 BC6      -0.0567
     29 C13        36.1085  -10.5275   35.2774 C.2         1 BC6      -0.1009
     30 C14        37.4593  -10.5321   35.4071 C.2         1 BC6      -0.0506
     31 C30        38.1147  -11.3326   36.4383 C.3         1 BC6      -0.0376
     32 C15        38.2757   -9.7212   34.4864 C.3         1 BC6       0.1158
     33 O31        39.1722  -10.6118   33.8037 O.3         1 BC6      -0.2488
     34 C32        38.9342  -11.3154   32.6695 C.2         1 BC6       0.3192
     35 O33        37.7557  -11.2349   32.0224 O.2         1 BC6      -0.3776
     36 N34        39.9202  -12.1011   32.1899 N.am        1 BC6      -0.2762
     37 H1         39.3020   -4.6641   38.7407 H           1 BC6       0.0348
     38 H2         40.8686   -4.7401   39.5245 H           1 BC6       0.0348
     39 H3         39.3887   -5.0685   40.4461 H           1 BC6       0.0348
     40 H4         39.6208   -8.2456   38.0525 H           1 BC6       0.0638
     41 H5         39.5898   -5.9928   36.4502 H           1 BC6       0.0437
     42 H6         38.0764   -5.9574   37.3360 H           1 BC6       0.0437
     43 H7         37.6159   -6.9869   35.2379 H           1 BC6       0.0295
     44 H8         37.4228   -8.1405   36.5373 H           1 BC6       0.0295
     45 H9         39.7781   -9.0671   35.9042 H           1 BC6       0.0350
     46 H10        40.6449   -8.5471   33.6566 H           1 BC6       0.0235
     47 H11        40.6097   -7.0950   34.6500 H           1 BC6       0.0235
     48 H12        39.3453   -7.3647   33.4409 H           1 BC6       0.0235
     49 H13        41.1299   -8.9452   41.1821 H           1 BC6       0.2240
     50 H14        40.1690  -11.0386   40.8818 H           1 BC6       0.0366
     51 H15        38.1747  -12.9971   40.1960 H           1 BC6       0.2475
     52 H16        36.0017  -11.2579   41.1104 H           1 BC6       0.0358
     53 H17        37.8991   -7.5091   40.8101 H           1 BC6       0.0351
     54 H18        35.4988   -7.7377   41.6441 H           1 BC6       0.0424
     55 H19        34.6976   -9.2755   41.4571 H           1 BC6       0.0424
     56 H20        33.8658   -7.8213   39.8065 H           1 BC6       0.0321
     57 H21        35.0599   -6.6344   38.1118 H           1 BC6       0.0234
     58 H22        36.6094   -7.2955   38.6972 H           1 BC6       0.0234
     59 H23        35.5975   -6.1942   39.7330 H           1 BC6       0.0234
     60 H24        34.3688  -10.3029   39.1914 H           1 BC6       0.0295
     61 H25        35.8351   -9.7637   38.3926 H           1 BC6       0.0295
     62 H26        34.5807   -8.6068   36.7238 H           1 BC6       0.0623
     63 H27        30.8702   -8.2921   38.4369 H           1 BC6       0.0524
     64 H28        32.0257   -9.1804   39.4657 H           1 BC6       0.0524
     65 H29        31.1869  -10.0254   38.1391 H           1 BC6       0.0524
     66 H30        33.3355  -10.2637   35.5215 H           1 BC6       0.0637
     67 H31        32.8160  -12.2194   36.5415 H           1 BC6       0.2101
     68 H32        35.5916  -11.7219   36.9485 H           1 BC6       0.0398
     69 H33        35.7222  -13.1604   34.8797 H           1 BC6       0.0247
     70 H34        34.2878  -12.3248   34.2378 H           1 BC6       0.0247
     71 H35        34.1841  -13.3138   35.6895 H           1 BC6       0.0247
     72 H36        35.7070   -9.9768   34.5516 H           1 BC6       0.0246
     73 H37        37.8029  -12.3776   36.3709 H           1 BC6       0.0376
     74 H38        37.8636  -10.9478   37.4298 H           1 BC6       0.0376
     75 H39        39.1992  -11.3178   36.3434 H           1 BC6       0.0376
     76 H40        37.6601   -9.2274   33.7268 H           1 BC6       0.0799
     77 H41        39.7907  -12.6088   31.3763 H           1 BC6       0.1831
     78 H42        40.7584  -12.1582   32.6660 H           1 BC6       0.1831
@<TRIPOS>BOND
     1     1     2   2
     2     2     3   1
     3     2    10  am
     4     3     4   1
     5     3     5   2
     6     5     6   1
     7     6     7   1
     8     7     8   1
     9     8     9   1
    10     8    32   1
    11    10    11   1
    12    11    12  ar
    13    11    17  ar
    14    12    13  ar
    15    13    14   1
    16    13    15  ar
    17    15    16  ar
    18    16    17  ar
    19    16    18   1
    20    18    19   1
    21    19    20   1
    22    19    21   1
    23    21    22   1
    24    22    23   1
    25    22    25   1
    26    23    24   1
    27    25    26   1
    28    25    27   1
    29    27    28   1
    30    27    29   1
    31    29    30   2
    32    30    31   1
    33    30    32   1
    34    32    33   1
    35    33    34   1
    36    34    35   2
    37    34    36  am
    38     4    37   1
    39     4    38   1
    40     4    39   1
    41     5    40   1
    42     6    41   1
    43     6    42   1
    44     7    43   1
    45     7    44   1
    46     8    45   1
    47     9    46   1
    48     9    47   1
    49     9    48   1
    50    10    49   1
    51    12    50   1
    52    14    51   1
    53    15    52   1
    54    17    53   1
    55    18    54   1
    56    18    55   1
    57    19    56   1
    58    20    57   1
    59    20    58   1
    60    20    59   1
    61    21    60   1
    62    21    61   1
    63    22    62   1
    64    24    63   1
    65    24    64   1
    66    24    65   1
    67    25    66   1
    68    26    67   1
    69    27    68   1
    70    28    69   1
    71    28    70   1
    72    28    71   1
    73    29    72   1
    74    31    73   1
    75    31    74   1
    76    31    75   1
    77    32    76   1
    78    36    77   1
    79    36    78   1
@<TRIPOS>SUBSTRUCTURE
     1  BC6      2

