@<TRIPOS>MOLECULE
2vw5_ligand_013
    78    79
SMALL
GAST_HUCK
****
This file was generated by PARSER (from files_GN.cpp)

@<TRIPOS>ATOM
      1 O37        44.4949   -8.9254   33.0826 O.2         1 BC6      -0.3848
      2 C21        43.8687   -8.2726   33.9097 C.2         1 BC6       0.2138
      3 C20        44.4327   -7.1026   34.3442 C.2         1 BC6       0.0175
      4 C36        45.7047   -7.2362   35.0567 C.3         1 BC6      -0.0331
      5 C19        43.8263   -5.9265   34.0520 C.2         1 BC6      -0.0677
      6 C18        44.3499   -4.5958   34.3395 C.3         1 BC6      -0.0250
      7 C17        43.3191   -3.4346   34.2496 C.3         1 BC6      -0.0362
      8 C16        42.7746   -3.0392   32.8347 C.3         1 BC6      -0.0026
      9 C35        43.8895   -2.3832   31.9706 C.3         1 BC6      -0.0578
     10 N22        42.6581   -8.7514   34.1756 N.am        1 BC6      -0.2407
     11 C3         41.6668   -8.2635   34.9696 C.ar        1 BC6       0.0494
     12 C4         40.3591   -8.3628   34.4611 C.ar        1 BC6      -0.0212
     13 C5         39.2629   -7.9144   35.2152 C.ar        1 BC6       0.0678
     14 O36        38.0124   -7.9744   34.6936 O.3         1 BC6      -0.3387
     15 C6         39.4589   -7.3995   36.5081 C.ar        1 BC6      -0.0476
     16 C1         40.7583   -7.2967   37.0527 C.ar        1 BC6      -0.0648
     17 C2         41.8569   -7.7384   36.2717 C.ar        1 BC6      -0.0516
     18 C7         40.9490   -6.7237   38.4158 C.3         1 BC6      -0.0222
     19 C8         41.2526   -5.1869   38.4650 C.3         1 BC6      -0.0322
     20 C25        42.6786   -4.8838   37.9415 C.3         1 BC6      -0.0605
     21 C9         40.1522   -4.3454   37.7420 C.3         1 BC6      -0.0197
     22 C10        40.2248   -2.7885   37.8481 C.3         1 BC6       0.0859
     23 O26        40.3670   -2.4174   39.2462 O.3         1 BC6      -0.3771
     24 C27        40.2001   -1.0276   39.5622 C.3         1 BC6       0.0369
     25 C11        38.9959   -2.0873   37.1742 C.3         1 BC6       0.0868
     26 O28        37.8380   -2.4097   37.9481 O.3         1 BC6      -0.3877
     27 C12        38.7588   -2.4022   35.6623 C.3         1 BC6      -0.0094
     28 C29        37.5191   -1.6342   35.1364 C.3         1 BC6      -0.0567
     29 C13        39.9147   -2.0398   34.8310 C.2         1 BC6      -0.1009
     30 C14        40.3752   -2.6622   33.7121 C.2         1 BC6      -0.0506
     31 C30        39.7326   -3.8839   33.2373 C.3         1 BC6      -0.0376
     32 C15        41.5186   -2.0953   32.9640 C.3         1 BC6       0.1158
     33 O31        40.9965   -1.5614   31.7328 O.3         1 BC6      -0.2488
     34 C32        40.8005   -2.0720   30.4871 C.2         1 BC6       0.3192
     35 O33        41.1614   -3.3281   30.1308 O.2         1 BC6      -0.3776
     36 N34        40.2697   -1.2663   29.5506 N.am        1 BC6      -0.2762
     37 H1         46.1673   -6.2888   35.3285 H           1 BC6       0.0348
     38 H2         46.4330   -7.7729   34.4445 H           1 BC6       0.0348
     39 H3         45.5482   -7.7986   35.9795 H           1 BC6       0.0348
     40 H4         42.9463   -5.9607   33.5903 H           1 BC6       0.0638
     41 H5         45.2013   -4.3970   33.6861 H           1 BC6       0.0437
     42 H6         44.7152   -4.5776   35.3678 H           1 BC6       0.0437
     43 H7         43.7757   -2.5444   34.6959 H           1 BC6       0.0295
     44 H8         42.4857   -3.7111   34.8982 H           1 BC6       0.0295
     45 H9         42.4761   -3.9544   32.3159 H           1 BC6       0.0350
     46 H10        43.5021   -2.0291   31.0140 H           1 BC6       0.0235
     47 H11        44.6790   -3.1060   31.7527 H           1 BC6       0.0235
     48 H12        44.3325   -1.5309   32.4953 H           1 BC6       0.0235
     49 H13        42.4055   -9.5274   33.6499 H           1 BC6       0.2240
     50 H14        40.1959   -8.7535   33.5324 H           1 BC6       0.0366
     51 H15        37.9626   -7.2052   34.0856 H           1 BC6       0.2475
     52 H16        38.6466   -7.0851   37.0414 H           1 BC6       0.0358
     53 H17        42.8042   -7.7027   36.6637 H           1 BC6       0.0351
     54 H18        41.7508   -7.2652   38.9247 H           1 BC6       0.0424
     55 H19        40.0517   -6.9085   39.0133 H           1 BC6       0.0424
     56 H20        41.2378   -4.9017   39.5257 H           1 BC6       0.0321
     57 H21        42.9448   -3.8386   38.0961 H           1 BC6       0.0234
     58 H22        42.7519   -5.1064   36.8802 H           1 BC6       0.0234
     59 H23        43.3995   -5.4987   38.4780 H           1 BC6       0.0234
     60 H24        39.1854   -4.6606   38.1370 H           1 BC6       0.0295
     61 H25        40.1856   -4.6109   36.6878 H           1 BC6       0.0295
     62 H26        41.1312   -2.4674   37.3208 H           1 BC6       0.0623
     63 H27        40.5959   -0.8282   40.5496 H           1 BC6       0.0524
     64 H28        39.1408   -0.7837   39.5765 H           1 BC6       0.0524
     65 H29        40.7169   -0.3926   38.8414 H           1 BC6       0.0524
     66 H30        39.1314   -1.0040   37.2472 H           1 BC6       0.0637
     67 H31        37.6956   -1.6428   38.5672 H           1 BC6       0.2101
     68 H32        38.5227   -3.4592   35.5653 H           1 BC6       0.0398
     69 H33        37.3401   -1.8405   34.0770 H           1 BC6       0.0247
     70 H34        37.6454   -0.5514   35.2589 H           1 BC6       0.0247
     71 H35        36.6329   -1.9491   35.6911 H           1 BC6       0.0247
     72 H36        40.3583   -1.1781   35.0844 H           1 BC6       0.0246
     73 H37        38.6798   -3.6916   33.0175 H           1 BC6       0.0376
     74 H38        39.8091   -4.6769   33.9849 H           1 BC6       0.0376
     75 H39        40.1916   -4.2585   32.3301 H           1 BC6       0.0376
     76 H40        41.8949   -1.2053   33.4694 H           1 BC6       0.0799
     77 H41        40.1290   -1.6000   28.6512 H           1 BC6       0.1831
     78 H42        40.0482   -0.3469   29.7708 H           1 BC6       0.1831
@<TRIPOS>BOND
     1     1     2   2
     2     2     3   1
     3     2    10  am
     4     3     4   1
     5     3     5   2
     6     5     6   1
     7     6     7   1
     8     7     8   1
     9     8     9   1
    10     8    32   1
    11    10    11   1
    12    11    12  ar
    13    11    17  ar
    14    12    13  ar
    15    13    14   1
    16    13    15  ar
    17    15    16  ar
    18    16    17  ar
    19    16    18   1
    20    18    19   1
    21    19    20   1
    22    19    21   1
    23    21    22   1
    24    22    23   1
    25    22    25   1
    26    23    24   1
    27    25    26   1
    28    25    27   1
    29    27    28   1
    30    27    29   1
    31    29    30   2
    32    30    31   1
    33    30    32   1
    34    32    33   1
    35    33    34   1
    36    34    35   2
    37    34    36  am
    38     4    37   1
    39     4    38   1
    40     4    39   1
    41     5    40   1
    42     6    41   1
    43     6    42   1
    44     7    43   1
    45     7    44   1
    46     8    45   1
    47     9    46   1
    48     9    47   1
    49     9    48   1
    50    10    49   1
    51    12    50   1
    52    14    51   1
    53    15    52   1
    54    17    53   1
    55    18    54   1
    56    18    55   1
    57    19    56   1
    58    20    57   1
    59    20    58   1
    60    20    59   1
    61    21    60   1
    62    21    61   1
    63    22    62   1
    64    24    63   1
    65    24    64   1
    66    24    65   1
    67    25    66   1
    68    26    67   1
    69    27    68   1
    70    28    69   1
    71    28    70   1
    72    28    71   1
    73    29    72   1
    74    31    73   1
    75    31    74   1
    76    31    75   1
    77    32    76   1
    78    36    77   1
    79    36    78   1
@<TRIPOS>SUBSTRUCTURE
     1  BC6      2

