@<TRIPOS>MOLECULE
2vw5_ligand_027
    78    79
SMALL
GAST_HUCK
****
This file was generated by PARSER (from files_GN.cpp)

@<TRIPOS>ATOM
      1 O37        43.5819   -6.7396   37.4924 O.2         1 BC6      -0.3848
      2 C21        42.6076   -7.3121   37.0183 C.2         1 BC6       0.2138
      3 C20        42.4663   -8.6550   37.2627 C.2         1 BC6       0.0175
      4 C36        43.6344   -9.4993   36.9706 C.3         1 BC6      -0.0331
      5 C19        41.3244   -9.1332   37.8119 C.2         1 BC6      -0.0677
      6 C18        41.0489  -10.5174   38.1897 C.3         1 BC6      -0.0250
      7 C17        39.5652  -10.8208   38.5506 C.3         1 BC6      -0.0362
      8 C16        38.9814  -10.1712   39.8517 C.3         1 BC6      -0.0026
      9 C35        39.6194  -10.8089   41.1133 C.3         1 BC6      -0.0578
     10 N22        41.7503   -6.4987   36.4028 N.am        1 BC6      -0.2407
     11 C3         40.5808   -6.7858   35.7630 C.ar        1 BC6       0.0494
     12 C4         39.4922   -5.9186   36.0031 C.ar        1 BC6      -0.0212
     13 C5         38.2474   -6.1473   35.3963 C.ar        1 BC6       0.0678
     14 O36        37.2061   -5.3190   35.6512 O.3         1 BC6      -0.3387
     15 C6         38.0953   -7.2317   34.5143 C.ar        1 BC6      -0.0476
     16 C1         39.1792   -8.0806   34.2118 C.ar        1 BC6      -0.0648
     17 C2         40.4226   -7.8517   34.8476 C.ar        1 BC6      -0.0516
     18 C7         39.0005   -9.1727   33.2096 C.3         1 BC6      -0.0222
     19 C8         38.5368  -10.5465   33.7951 C.3         1 BC6      -0.0322
     20 C25        39.7065  -11.2646   34.5226 C.3         1 BC6      -0.0605
     21 C9         37.2448  -10.3985   34.6735 C.3         1 BC6      -0.0197
     22 C10        36.6196  -11.6805   35.2964 C.3         1 BC6       0.0859
     23 O26        36.6520  -12.6798   34.2616 O.3         1 BC6      -0.3771
     24 C27        37.5080  -13.8130   34.4639 C.3         1 BC6       0.0369
     25 C11        35.1632  -11.4926   35.8505 C.3         1 BC6       0.0868
     26 O28        34.2723  -11.2773   34.7603 O.3         1 BC6      -0.3877
     27 C12        34.9724  -10.3579   36.9208 C.3         1 BC6      -0.0094
     28 C29        33.4979  -10.1885   37.3902 C.3         1 BC6      -0.0567
     29 C13        35.7959  -10.6251   38.1002 C.2         1 BC6      -0.1009
     30 C14        36.6895   -9.8113   38.7102 C.2         1 BC6      -0.0506
     31 C30        36.8765   -8.4342   38.2629 C.3         1 BC6      -0.0376
     32 C15        37.4133  -10.2921   39.9010 C.3         1 BC6       0.1158
     33 O31        36.7836   -9.7116   41.0579 O.3         1 BC6      -0.2488
     34 C32        36.7451   -8.4531   41.5730 C.2         1 BC6       0.3192
     35 O33        37.4654   -7.4279   41.0763 O.2         1 BC6      -0.3776
     36 N34        36.0260   -8.2372   42.6807 N.am        1 BC6      -0.2762
     37 H1         43.4701  -10.5664   37.1189 H           1 BC6       0.0348
     38 H2         44.4610   -9.2087   37.6220 H           1 BC6       0.0348
     39 H3         43.9408   -9.3616   35.9289 H           1 BC6       0.0348
     40 H4         40.5932   -8.4815   37.9863 H           1 BC6       0.0638
     41 H5         41.7033  -10.7972   39.0179 H           1 BC6       0.0437
     42 H6         41.2979  -11.1657   37.3454 H           1 BC6       0.0437
     43 H7         39.4557  -11.9046   38.6360 H           1 BC6       0.0295
     44 H8         38.9750  -10.5181   37.6825 H           1 BC6       0.0295
     45 H9         39.2569   -9.1216   39.8624 H           1 BC6       0.0350
     46 H10        39.2435  -10.3372   42.0159 H           1 BC6       0.0235
     47 H11        40.6979  -10.6709   41.1040 H           1 BC6       0.0235
     48 H12        39.3978  -11.8807   41.1691 H           1 BC6       0.0235
     49 H13        41.9552   -5.5572   36.4948 H           1 BC6       0.2240
     50 H14        39.5950   -5.1252   36.6415 H           1 BC6       0.0366
     51 H15        36.4221   -5.7297   35.2299 H           1 BC6       0.2475
     52 H16        37.1842   -7.3881   34.0759 H           1 BC6       0.0358
     53 H17        41.2230   -8.4522   34.6347 H           1 BC6       0.0351
     54 H18        39.9289   -9.3119   32.6475 H           1 BC6       0.0424
     55 H19        38.2597   -8.8557   32.4679 H           1 BC6       0.0424
     56 H20        38.2733  -11.1768   32.9363 H           1 BC6       0.0321
     57 H21        39.4163  -12.2675   34.8323 H           1 BC6       0.0234
     58 H22        40.0067  -10.6995   35.3993 H           1 BC6       0.0234
     59 H23        40.5668  -11.3607   33.8574 H           1 BC6       0.0234
     60 H24        36.4866   -9.8983   34.0713 H           1 BC6       0.0295
     61 H25        37.4920   -9.7420   35.5036 H           1 BC6       0.0295
     62 H26        37.2709  -11.9680   36.1366 H           1 BC6       0.0623
     63 H27        37.7365  -14.2069   33.4757 H           1 BC6       0.0524
     64 H28        36.9928  -14.5858   35.0377 H           1 BC6       0.0524
     65 H29        38.4622  -13.5619   34.9389 H           1 BC6       0.0524
     66 H30        34.8623  -12.4381   36.3092 H           1 BC6       0.0637
     67 H31        33.9064  -12.1618   34.5397 H           1 BC6       0.2101
     68 H32        35.2344   -9.4105   36.4393 H           1 BC6       0.0398
     69 H33        33.4166   -9.3683   38.1084 H           1 BC6       0.0247
     70 H34        33.1253  -11.0997   37.8601 H           1 BC6       0.0247
     71 H35        32.8521   -9.9450   36.5466 H           1 BC6       0.0247
     72 H36        35.6375  -11.5182   38.5092 H           1 BC6       0.0246
     73 H37        35.9404   -7.8993   38.3935 H           1 BC6       0.0376
     74 H38        37.1784   -8.3856   37.2237 H           1 BC6       0.0376
     75 H39        37.6433   -7.8966   38.8047 H           1 BC6       0.0376
     76 H40        37.2266  -11.3657   40.0313 H           1 BC6       0.0799
     77 H41        36.0533   -7.3725   43.1240 H           1 BC6       0.1831
     78 H42        35.5258   -8.9636   43.0886 H           1 BC6       0.1831
@<TRIPOS>BOND
     1     1     2   2
     2     2     3   1
     3     2    10  am
     4     3     4   1
     5     3     5   2
     6     5     6   1
     7     6     7   1
     8     7     8   1
     9     8     9   1
    10     8    32   1
    11    10    11   1
    12    11    12  ar
    13    11    17  ar
    14    12    13  ar
    15    13    14   1
    16    13    15  ar
    17    15    16  ar
    18    16    17  ar
    19    16    18   1
    20    18    19   1
    21    19    20   1
    22    19    21   1
    23    21    22   1
    24    22    23   1
    25    22    25   1
    26    23    24   1
    27    25    26   1
    28    25    27   1
    29    27    28   1
    30    27    29   1
    31    29    30   2
    32    30    31   1
    33    30    32   1
    34    32    33   1
    35    33    34   1
    36    34    35   2
    37    34    36  am
    38     4    37   1
    39     4    38   1
    40     4    39   1
    41     5    40   1
    42     6    41   1
    43     6    42   1
    44     7    43   1
    45     7    44   1
    46     8    45   1
    47     9    46   1
    48     9    47   1
    49     9    48   1
    50    10    49   1
    51    12    50   1
    52    14    51   1
    53    15    52   1
    54    17    53   1
    55    18    54   1
    56    18    55   1
    57    19    56   1
    58    20    57   1
    59    20    58   1
    60    20    59   1
    61    21    60   1
    62    21    61   1
    63    22    62   1
    64    24    63   1
    65    24    64   1
    66    24    65   1
    67    25    66   1
    68    26    67   1
    69    27    68   1
    70    28    69   1
    71    28    70   1
    72    28    71   1
    73    29    72   1
    74    31    73   1
    75    31    74   1
    76    31    75   1
    77    32    76   1
    78    36    77   1
    79    36    78   1
@<TRIPOS>SUBSTRUCTURE
     1  BC6      2

