@<TRIPOS>MOLECULE
2vw5_ligand_022
    78    79
SMALL
GAST_HUCK
****
This file was generated by PARSER (from files_GN.cpp)

@<TRIPOS>ATOM
      1 O37        44.7172  -13.6987   35.2136 O.2         1 BC6      -0.3848
      2 C21        43.6933  -13.0300   35.1671 C.2         1 BC6       0.2138
      3 C20        43.2194  -12.5317   36.3571 C.2         1 BC6       0.0175
      4 C36        43.0427  -13.4923   37.4480 C.3         1 BC6      -0.0331
      5 C19        43.0931  -11.1924   36.5143 C.2         1 BC6      -0.0677
      6 C18        42.8305  -10.4787   37.7652 C.3         1 BC6      -0.0250
      7 C17        42.5320   -8.9594   37.6162 C.3         1 BC6      -0.0362
      8 C16        43.6756   -8.0590   37.0333 C.3         1 BC6      -0.0026
      9 C35        44.8116   -7.8468   38.0781 C.3         1 BC6      -0.0578
     10 N22        43.2850  -12.7713   33.9291 N.am        1 BC6      -0.2407
     11 C3         42.2081  -12.0659   33.4704 C.ar        1 BC6       0.0494
     12 C4         42.3562  -11.4001   32.2372 C.ar        1 BC6      -0.0212
     13 C5         41.2911  -10.6611   31.6891 C.ar        1 BC6       0.0678
     14 O36        41.4306  -10.0339   30.4948 O.3         1 BC6      -0.3387
     15 C6         40.0635  -10.5912   32.3743 C.ar        1 BC6      -0.0476
     16 C1         39.8642  -11.2882   33.5886 C.ar        1 BC6      -0.0648
     17 C2         40.9452  -12.0420   34.1055 C.ar        1 BC6      -0.0516
     18 C7         38.5212  -11.3181   34.2443 C.3         1 BC6      -0.0222
     19 C8         38.3258  -10.4648   35.5414 C.3         1 BC6      -0.0322
     20 C25        39.1735  -10.9970   36.7289 C.3         1 BC6      -0.0605
     21 C9         38.5266   -8.9335   35.3068 C.3         1 BC6      -0.0197
     22 C10        38.1487   -7.9702   36.4800 C.3         1 BC6       0.0859
     23 O26        36.7796   -8.1910   36.9065 O.3         1 BC6      -0.3771
     24 C27        36.5171   -8.9395   38.1084 C.3         1 BC6       0.0369
     25 C11        38.2383   -6.4495   36.1148 C.3         1 BC6       0.0868
     26 O28        37.1236   -6.1020   35.2932 O.3         1 BC6      -0.3877
     27 C12        39.5318   -5.9088   35.4106 C.3         1 BC6      -0.0094
     28 C29        39.4702   -4.3656   35.1967 C.3         1 BC6      -0.0567
     29 C13        40.7662   -6.2078   36.1365 C.2         1 BC6      -0.1009
     30 C14        41.9373   -6.7012   35.6578 C.2         1 BC6      -0.0506
     31 C30        42.0921   -7.2333   34.3021 C.3         1 BC6      -0.0376
     32 C15        43.1434   -6.6714   36.5211 C.3         1 BC6       0.1158
     33 O31        44.1668   -5.8666   35.9028 O.3         1 BC6      -0.2488
     34 C32        45.0673   -6.0515   34.8990 C.2         1 BC6       0.3192
     35 O33        45.2376   -7.2270   34.2570 O.2         1 BC6      -0.3776
     36 N34        45.8450   -5.0203   34.5378 N.am        1 BC6      -0.2762
     37 H1         42.4736  -13.1037   38.2891 H           1 BC6       0.0348
     38 H2         44.0161  -13.7972   37.8252 H           1 BC6       0.0348
     39 H3         42.5229  -14.3829   37.0883 H           1 BC6       0.0348
     40 H4         43.2122  -10.6265   35.7061 H           1 BC6       0.0638
     41 H5         43.6703  -10.6160   38.4464 H           1 BC6       0.0437
     42 H6         41.9481  -10.9099   38.2413 H           1 BC6       0.0437
     43 H7         42.2332   -8.5597   38.5895 H           1 BC6       0.0295
     44 H8         41.6524   -8.8940   36.9774 H           1 BC6       0.0295
     45 H9         44.1264   -8.5786   36.1873 H           1 BC6       0.0350
     46 H10        45.6346   -7.2761   37.6415 H           1 BC6       0.0235
     47 H11        45.2131   -8.8003   38.4196 H           1 BC6       0.0235
     48 H12        44.4375   -7.3055   38.9491 H           1 BC6       0.0235
     49 H13        43.8702  -13.1145   33.2329 H           1 BC6       0.2240
     50 H14        43.2480  -11.4472   31.7333 H           1 BC6       0.0366
     51 H15        42.1962  -10.4557   30.0466 H           1 BC6       0.2475
     52 H16        39.3008  -10.0513   31.9596 H           1 BC6       0.0358
     53 H17        40.8052  -12.6141   34.9355 H           1 BC6       0.0351
     54 H18        38.2812  -12.3604   34.4720 H           1 BC6       0.0424
     55 H19        37.7602  -10.9976   33.5294 H           1 BC6       0.0424
     56 H20        37.2770  -10.6087   35.8175 H           1 BC6       0.0321
     57 H21        38.9762  -10.4439   37.6492 H           1 BC6       0.0234
     58 H22        40.2356  -10.9087   36.5020 H           1 BC6       0.0234
     59 H23        38.9267  -12.0449   36.9132 H           1 BC6       0.0234
     60 H24        37.9470   -8.6443   34.4290 H           1 BC6       0.0295
     61 H25        39.5764   -8.7808   35.0707 H           1 BC6       0.0295
     62 H26        38.8480   -8.1305   37.3052 H           1 BC6       0.0623
     63 H27        35.4472   -8.8713   38.3326 H           1 BC6       0.0524
     64 H28        37.0783   -8.5278   38.9529 H           1 BC6       0.0524
     65 H29        36.7672   -9.9925   37.9757 H           1 BC6       0.0524
     66 H30        38.1072   -5.8957   37.0490 H           1 BC6       0.0637
     67 H31        37.3058   -6.5440   34.4368 H           1 BC6       0.2101
     68 H32        39.5469   -6.3337   34.4121 H           1 BC6       0.0398
     69 H33        40.3729   -4.0106   34.6904 H           1 BC6       0.0247
     70 H34        39.3783   -3.8387   36.1509 H           1 BC6       0.0247
     71 H35        38.6155   -4.0980   34.5713 H           1 BC6       0.0247
     72 H36        40.7483   -5.9132   37.0872 H           1 BC6       0.0246
     73 H37        41.1774   -7.6359   33.8831 H           1 BC6       0.0376
     74 H38        42.7952   -8.0646   34.2887 H           1 BC6       0.0376
     75 H39        42.4630   -6.4488   33.6389 H           1 BC6       0.0376
     76 H40        42.9187   -6.1027   37.4280 H           1 BC6       0.0799
     77 H41        46.4921   -5.1388   33.8258 H           1 BC6       0.1831
     78 H42        45.7546   -4.1588   34.9729 H           1 BC6       0.1831
@<TRIPOS>BOND
     1     1     2   2
     2     2     3   1
     3     2    10  am
     4     3     4   1
     5     3     5   2
     6     5     6   1
     7     6     7   1
     8     7     8   1
     9     8     9   1
    10     8    32   1
    11    10    11   1
    12    11    12  ar
    13    11    17  ar
    14    12    13  ar
    15    13    14   1
    16    13    15  ar
    17    15    16  ar
    18    16    17  ar
    19    16    18   1
    20    18    19   1
    21    19    20   1
    22    19    21   1
    23    21    22   1
    24    22    23   1
    25    22    25   1
    26    23    24   1
    27    25    26   1
    28    25    27   1
    29    27    28   1
    30    27    29   1
    31    29    30   2
    32    30    31   1
    33    30    32   1
    34    32    33   1
    35    33    34   1
    36    34    35   2
    37    34    36  am
    38     4    37   1
    39     4    38   1
    40     4    39   1
    41     5    40   1
    42     6    41   1
    43     6    42   1
    44     7    43   1
    45     7    44   1
    46     8    45   1
    47     9    46   1
    48     9    47   1
    49     9    48   1
    50    10    49   1
    51    12    50   1
    52    14    51   1
    53    15    52   1
    54    17    53   1
    55    18    54   1
    56    18    55   1
    57    19    56   1
    58    20    57   1
    59    20    58   1
    60    20    59   1
    61    21    60   1
    62    21    61   1
    63    22    62   1
    64    24    63   1
    65    24    64   1
    66    24    65   1
    67    25    66   1
    68    26    67   1
    69    27    68   1
    70    28    69   1
    71    28    70   1
    72    28    71   1
    73    29    72   1
    74    31    73   1
    75    31    74   1
    76    31    75   1
    77    32    76   1
    78    36    77   1
    79    36    78   1
@<TRIPOS>SUBSTRUCTURE
     1  BC6      2

