@<TRIPOS>MOLECULE
2vw5_ligand_006
    78    79
SMALL
GAST_HUCK
****
This file was generated by PARSER (from files_GN.cpp)

@<TRIPOS>ATOM
      1 O37        36.7312   -9.4884   34.3959 O.2         1 BC6      -0.3848
      2 C21        37.7272   -9.5695   35.1016 C.2         1 BC6       0.2138
      3 C20        38.8189   -8.8361   34.7290 C.2         1 BC6       0.0175
      4 C36        39.4467   -9.2096   33.4594 C.3         1 BC6      -0.0331
      5 C19        39.2048   -7.8033   35.5028 C.2         1 BC6      -0.0677
      6 C18        40.1902   -6.7721   35.1742 C.3         1 BC6      -0.0250
      7 C17        40.6421   -5.8842   36.3714 C.3         1 BC6      -0.0362
      8 C16        39.5542   -4.9896   37.0619 C.3         1 BC6      -0.0026
      9 C35        39.1482   -3.7955   36.1498 C.3         1 BC6      -0.0578
     10 N22        37.5787  -10.2864   36.2130 N.am        1 BC6      -0.2407
     11 C3         38.4728  -10.5669   37.2084 C.ar        1 BC6       0.0494
     12 C4         37.9447  -10.7237   38.5076 C.ar        1 BC6      -0.0212
     13 C5         38.7890  -11.0109   39.5986 C.ar        1 BC6       0.0678
     14 O36        38.2940  -11.1279   40.8599 O.3         1 BC6      -0.3387
     15 C6         40.1649  -11.1781   39.3880 C.ar        1 BC6      -0.0476
     16 C1         40.7301  -11.0397   38.0958 C.ar        1 BC6      -0.0648
     17 C2         39.8630  -10.7524   37.0142 C.ar        1 BC6      -0.0516
     18 C7         42.1979  -11.2321   37.8903 C.3         1 BC6      -0.0222
     19 C8         43.0653   -9.9257   37.8357 C.3         1 BC6      -0.0322
     20 C25        42.8178   -9.1417   36.5205 C.3         1 BC6      -0.0605
     21 C9         42.9068   -9.0637   39.1303 C.3         1 BC6      -0.0197
     22 C10        43.7713   -7.7670   39.2847 C.3         1 BC6       0.0859
     23 O26        45.1497   -7.9472   38.8690 O.3         1 BC6      -0.3771
     24 C27        46.2052   -8.3148   39.7804 C.3         1 BC6       0.0369
     25 C11        43.5635   -7.0290   40.6630 C.3         1 BC6       0.0868
     26 O28        44.0574   -7.8161   41.7570 O.3         1 BC6      -0.3877
     27 C12        42.1103   -6.5404   41.0013 C.3         1 BC6      -0.0094
     28 C29        42.0509   -5.8866   42.4138 C.3         1 BC6      -0.0567
     29 C13        41.5950   -5.5844   40.0067 C.2         1 BC6      -0.1009
     30 C14        40.3712   -5.5573   39.4381 C.2         1 BC6      -0.0506
     31 C30        39.3482   -6.5408   39.8126 C.3         1 BC6      -0.0376
     32 C15        40.0246   -4.4884   38.4704 C.3         1 BC6       0.1158
     33 O31        38.9994   -3.6834   39.0886 O.3         1 BC6      -0.2488
     34 C32        39.1550   -2.5626   39.8306 C.2         1 BC6       0.3192
     35 O33        40.3769   -2.0422   40.0942 O.2         1 BC6      -0.3776
     36 N34        38.0735   -1.9365   40.3268 N.am        1 BC6      -0.2762
     37 H1         40.4851   -8.8958   33.3982 H           1 BC6       0.0348
     38 H2         38.8944   -8.7683   32.6291 H           1 BC6       0.0348
     39 H3         39.4485  -10.2952   33.3339 H           1 BC6       0.0348
     40 H4         38.7535   -7.7029   36.3854 H           1 BC6       0.0638
     41 H5         39.7905   -6.1406   34.3843 H           1 BC6       0.0437
     42 H6         41.0954   -7.2392   34.7846 H           1 BC6       0.0437
     43 H7         41.4600   -5.2395   36.0325 H           1 BC6       0.0295
     44 H8         41.0761   -6.5604   37.1119 H           1 BC6       0.0295
     45 H9         38.6489   -5.5758   37.1998 H           1 BC6       0.0350
     46 H10        38.3514   -3.2126   36.6156 H           1 BC6       0.0235
     47 H11        38.7734   -4.1524   35.1897 H           1 BC6       0.0235
     48 H12        40.0012   -3.1381   35.9699 H           1 BC6       0.0235
     49 H13        36.6766  -10.6023   36.3705 H           1 BC6       0.2240
     50 H14        36.9403  -10.6121   38.6696 H           1 BC6       0.0366
     51 H15        37.4687  -10.6033   40.8794 H           1 BC6       0.2475
     52 H16        40.7647  -11.3997   40.1847 H           1 BC6       0.0358
     53 H17        40.2475  -10.7136   36.0699 H           1 BC6       0.0351
     54 H18        42.3507  -11.8083   36.9729 H           1 BC6       0.0424
     55 H19        42.5906  -11.8627   38.6935 H           1 BC6       0.0424
     56 H20        44.1085  -10.2448   37.7990 H           1 BC6       0.0321
     57 H21        43.5173   -8.3127   36.4188 H           1 BC6       0.0234
     58 H22        41.8055   -8.7533   36.5144 H           1 BC6       0.0234
     59 H23        42.9456   -9.7956   35.6546 H           1 BC6       0.0234
     60 H24        43.0982   -9.7088   39.9844 H           1 BC6       0.0295
     61 H25        41.8595   -8.7611   39.1815 H           1 BC6       0.0295
     62 H26        43.3954   -7.0766   38.5157 H           1 BC6       0.0623
     63 H27        47.0928   -8.5227   39.2052 H           1 BC6       0.0524
     64 H28        45.9449   -9.2022   40.3619 H           1 BC6       0.0524
     65 H29        46.4466   -7.4867   40.4565 H           1 BC6       0.0524
     66 H30        44.1984   -6.1408   40.6371 H           1 BC6       0.0637
     67 H31        44.1551   -8.7293   41.4444 H           1 BC6       0.2101
     68 H32        41.4708   -7.4132   41.0536 H           1 BC6       0.0398
     69 H33        41.0704   -5.4467   42.6218 H           1 BC6       0.0247
     70 H34        42.8086   -5.1043   42.5145 H           1 BC6       0.0247
     71 H35        42.2349   -6.6446   43.1785 H           1 BC6       0.0247
     72 H36        42.2267   -4.8493   39.7697 H           1 BC6       0.0246
     73 H37        39.1723   -6.4967   40.8871 H           1 BC6       0.0376
     74 H38        39.6679   -7.5477   39.5412 H           1 BC6       0.0376
     75 H39        38.3949   -6.3661   39.3280 H           1 BC6       0.0376
     76 H40        40.8903   -3.8426   38.2786 H           1 BC6       0.0799
     77 H41        38.1835   -1.1307   40.8513 H           1 BC6       0.1831
     78 H42        37.1849   -2.2848   40.1591 H           1 BC6       0.1831
@<TRIPOS>BOND
     1     1     2   2
     2     2     3   1
     3     2    10  am
     4     3     4   1
     5     3     5   2
     6     5     6   1
     7     6     7   1
     8     7     8   1
     9     8     9   1
    10     8    32   1
    11    10    11   1
    12    11    12  ar
    13    11    17  ar
    14    12    13  ar
    15    13    14   1
    16    13    15  ar
    17    15    16  ar
    18    16    17  ar
    19    16    18   1
    20    18    19   1
    21    19    20   1
    22    19    21   1
    23    21    22   1
    24    22    23   1
    25    22    25   1
    26    23    24   1
    27    25    26   1
    28    25    27   1
    29    27    28   1
    30    27    29   1
    31    29    30   2
    32    30    31   1
    33    30    32   1
    34    32    33   1
    35    33    34   1
    36    34    35   2
    37    34    36  am
    38     4    37   1
    39     4    38   1
    40     4    39   1
    41     5    40   1
    42     6    41   1
    43     6    42   1
    44     7    43   1
    45     7    44   1
    46     8    45   1
    47     9    46   1
    48     9    47   1
    49     9    48   1
    50    10    49   1
    51    12    50   1
    52    14    51   1
    53    15    52   1
    54    17    53   1
    55    18    54   1
    56    18    55   1
    57    19    56   1
    58    20    57   1
    59    20    58   1
    60    20    59   1
    61    21    60   1
    62    21    61   1
    63    22    62   1
    64    24    63   1
    65    24    64   1
    66    24    65   1
    67    25    66   1
    68    26    67   1
    69    27    68   1
    70    28    69   1
    71    28    70   1
    72    28    71   1
    73    29    72   1
    74    31    73   1
    75    31    74   1
    76    31    75   1
    77    32    76   1
    78    36    77   1
    79    36    78   1
@<TRIPOS>SUBSTRUCTURE
     1  BC6      2

