@<TRIPOS>MOLECULE
2vw5_ligand_020
    78    79
SMALL
GAST_HUCK
****
This file was generated by PARSER (from files_GN.cpp)

@<TRIPOS>ATOM
      1 O37        44.9080   -6.8031   37.3516 O.2         1 BC6      -0.3848
      2 C21        43.7633   -7.2296   37.4160 C.2         1 BC6       0.2138
      3 C20        42.8923   -6.8567   36.4241 C.2         1 BC6       0.0175
      4 C36        42.6619   -5.4201   36.2599 C.3         1 BC6      -0.0331
      5 C19        42.3617   -7.8090   35.6199 C.2         1 BC6      -0.0677
      6 C18        41.5082   -7.5765   34.4606 C.3         1 BC6      -0.0250
      7 C17        40.7845   -8.8355   33.9047 C.3         1 BC6      -0.0362
      8 C16        41.6359   -9.9610   33.2211 C.3         1 BC6      -0.0026
      9 C35        42.4624   -9.5022   31.9800 C.3         1 BC6      -0.0578
     10 N22        43.5722   -8.1133   38.3849 N.am        1 BC6      -0.2407
     11 C3         42.4585   -8.8224   38.7206 C.ar        1 BC6       0.0494
     12 C4         42.6554  -10.1648   39.0900 C.ar        1 BC6      -0.0212
     13 C5         41.5699  -10.9784   39.4465 C.ar        1 BC6       0.0678
     14 O36        41.7734  -12.2827   39.7404 O.3         1 BC6      -0.3387
     15 C6         40.2739  -10.4295   39.4959 C.ar        1 BC6      -0.0476
     16 C1         40.0513   -9.0715   39.1693 C.ar        1 BC6      -0.0648
     17 C2         41.1527   -8.2784   38.7722 C.ar        1 BC6      -0.0516
     18 C7         38.6774   -8.4988   39.2382 C.3         1 BC6      -0.0222
     19 C8         37.8664   -8.5430   37.9040 C.3         1 BC6      -0.0322
     20 C25        38.3637   -7.4868   36.8780 C.3         1 BC6      -0.0605
     21 C9         37.7754   -9.9958   37.3248 C.3         1 BC6      -0.0197
     22 C10        36.8550  -10.2060   36.0812 C.3         1 BC6       0.0859
     23 O26        35.6003   -9.4783   36.1768 O.3         1 BC6      -0.3771
     24 C27        34.5761   -9.8436   37.1258 C.3         1 BC6       0.0369
     25 C11        36.6751  -11.7010   35.6501 C.3         1 BC6       0.0868
     26 O28        36.0524  -12.4243   36.7168 O.3         1 BC6      -0.3877
     27 C12        37.9756  -12.4790   35.2190 C.3         1 BC6      -0.0094
     28 C29        37.6272  -13.9206   34.7548 C.3         1 BC6      -0.0567
     29 C13        38.7399  -11.8413   34.1408 C.2         1 BC6      -0.1009
     30 C14        40.0885  -11.8147   34.0011 C.2         1 BC6      -0.0506
     31 C30        40.9813  -12.3839   35.0063 C.3         1 BC6      -0.0376
     32 C15        40.7049  -11.1682   32.8292 C.3         1 BC6       0.1158
     33 O31        41.4375  -12.1798   32.1081 O.3         1 BC6      -0.2488
     34 C32        41.3338  -12.5295   30.7956 C.2         1 BC6       0.3192
     35 O33        40.5176  -11.8812   29.9351 O.2         1 BC6      -0.3776
     36 N34        42.1114  -13.5153   30.3221 N.am        1 BC6      -0.2762
     37 H1         41.8804   -5.1679   35.5463 H           1 BC6       0.0348
     38 H2         43.5762   -4.9392   35.9015 H           1 BC6       0.0348
     39 H3         42.3851   -4.9762   37.2173 H           1 BC6       0.0348
     40 H4         42.5873   -8.7576   35.8160 H           1 BC6       0.0638
     41 H5         42.0963   -7.0945   33.6798 H           1 BC6       0.0437
     42 H6         40.7108   -6.8882   34.7377 H           1 BC6       0.0437
     43 H7         40.0174   -8.5107   33.1993 H           1 BC6       0.0295
     44 H8         40.2484   -9.2728   34.7477 H           1 BC6       0.0295
     45 H9         42.3804  -10.2909   33.9454 H           1 BC6       0.0350
     46 H10        43.1432  -10.2973   31.6638 H           1 BC6       0.0235
     47 H11        43.0779   -8.6320   32.2140 H           1 BC6       0.0235
     48 H12        41.8080   -9.2727   31.1359 H           1 BC6       0.0235
     49 H13        44.3660   -8.3458   38.8968 H           1 BC6       0.2240
     50 H14        43.5990  -10.5640   39.0827 H           1 BC6       0.0366
     51 H15        41.5257  -12.7546   38.9191 H           1 BC6       0.2475
     52 H16        39.4967  -11.0345   39.7685 H           1 BC6       0.0358
     53 H17        41.0123   -7.2946   38.5420 H           1 BC6       0.0351
     54 H18        38.7281   -7.4680   39.6010 H           1 BC6       0.0424
     55 H19        38.1072   -9.0434   39.9962 H           1 BC6       0.0424
     56 H20        36.8512   -8.2442   38.1666 H           1 BC6       0.0321
     57 H21        37.6885   -7.4198   36.0246 H           1 BC6       0.0234
     58 H22        39.3577   -7.7507   36.5269 H           1 BC6       0.0234
     59 H23        38.4061   -6.4961   37.3392 H           1 BC6       0.0234
     60 H24        37.4344  -10.6542   38.1285 H           1 BC6       0.0295
     61 H25        38.7805  -10.3206   37.0446 H           1 BC6       0.0295
     62 H26        37.3626   -9.7124   35.2498 H           1 BC6       0.0623
     63 H27        33.8319   -9.0451   37.1395 H           1 BC6       0.0524
     64 H28        34.9657   -9.9636   38.1415 H           1 BC6       0.0524
     65 H29        34.0678  -10.7572   36.8205 H           1 BC6       0.0524
     66 H30        35.9753  -11.7053   34.8095 H           1 BC6       0.0637
     67 H31        35.7955  -13.2930   36.3422 H           1 BC6       0.2101
     68 H32        38.5894  -12.5692   36.1150 H           1 BC6       0.0398
     69 H33        38.5084  -14.4233   34.3505 H           1 BC6       0.0247
     70 H34        36.8618  -13.9009   33.9771 H           1 BC6       0.0247
     71 H35        37.2573  -14.5253   35.5847 H           1 BC6       0.0247
     72 H36        38.1879  -11.4882   33.3934 H           1 BC6       0.0246
     73 H37        40.7176  -13.4218   35.1805 H           1 BC6       0.0376
     74 H38        40.9050  -11.8149   35.9359 H           1 BC6       0.0376
     75 H39        42.0279  -12.3822   34.7028 H           1 BC6       0.0376
     76 H40        39.9288  -10.7636   32.1677 H           1 BC6       0.0799
     77 H41        42.0793  -13.7432   29.3788 H           1 BC6       0.1831
     78 H42        42.7348  -13.9720   30.9075 H           1 BC6       0.1831
@<TRIPOS>BOND
     1     1     2   2
     2     2     3   1
     3     2    10  am
     4     3     4   1
     5     3     5   2
     6     5     6   1
     7     6     7   1
     8     7     8   1
     9     8     9   1
    10     8    32   1
    11    10    11   1
    12    11    12  ar
    13    11    17  ar
    14    12    13  ar
    15    13    14   1
    16    13    15  ar
    17    15    16  ar
    18    16    17  ar
    19    16    18   1
    20    18    19   1
    21    19    20   1
    22    19    21   1
    23    21    22   1
    24    22    23   1
    25    22    25   1
    26    23    24   1
    27    25    26   1
    28    25    27   1
    29    27    28   1
    30    27    29   1
    31    29    30   2
    32    30    31   1
    33    30    32   1
    34    32    33   1
    35    33    34   1
    36    34    35   2
    37    34    36  am
    38     4    37   1
    39     4    38   1
    40     4    39   1
    41     5    40   1
    42     6    41   1
    43     6    42   1
    44     7    43   1
    45     7    44   1
    46     8    45   1
    47     9    46   1
    48     9    47   1
    49     9    48   1
    50    10    49   1
    51    12    50   1
    52    14    51   1
    53    15    52   1
    54    17    53   1
    55    18    54   1
    56    18    55   1
    57    19    56   1
    58    20    57   1
    59    20    58   1
    60    20    59   1
    61    21    60   1
    62    21    61   1
    63    22    62   1
    64    24    63   1
    65    24    64   1
    66    24    65   1
    67    25    66   1
    68    26    67   1
    69    27    68   1
    70    28    69   1
    71    28    70   1
    72    28    71   1
    73    29    72   1
    74    31    73   1
    75    31    74   1
    76    31    75   1
    77    32    76   1
    78    36    77   1
    79    36    78   1
@<TRIPOS>SUBSTRUCTURE
     1  BC6      2

