@<TRIPOS>MOLECULE
2w66_ligand_051
    35    35
SMALL
GAST_HUCK
****
This file was generated by PARSER (from files_GN.cpp)

@<TRIPOS>ATOM
      1 O9          4.6000  -13.7847    0.6423 O.2         1 HQ6      -0.3974
      2 C9          5.8007  -13.9405    0.4347 C.2         1 HQ6       0.1733
      3 C10         6.2000  -14.7540   -0.6877 C.3         1 HQ6       0.0257
      4 N2          6.7214  -13.4277    1.2470 N.am        1 HQ6      -0.2788
      5 C5          6.4768  -12.6300    2.4244 C.3         1 HQ6       0.1012
      6 C6          6.1278  -13.5455    3.6420 C.3         1 HQ6       0.1200
      7 O6          5.3464  -14.6801    3.2510 O.3         1 HQ6      -0.3841
      8 C4          7.7576  -11.7586    2.6978 C.3         1 HQ6       0.1118
      9 O4          8.1602  -11.1313    1.4677 O.3         1 HQ6      -0.3866
     10 C3          7.6150  -10.6292    3.7703 C.3         1 HQ6       0.1276
     11 O3          8.8811   -9.9700    3.8355 O.3         1 HQ6      -0.3835
     12 C2          7.1829  -11.1011    5.1993 C.3         1 HQ6       0.0301
     13 C8          7.3648  -10.0078    6.2935 C.3         1 HQ6       0.0893
     14 O8          7.6378  -10.6353    7.5554 O.3         1 HQ6      -0.3894
     15 N1          5.7438  -11.4608    5.1568 N.4         1 HQ6       0.2346
     16 C7          5.3316  -12.8248    4.7697 C.3         1 HQ6      -0.0043
     17 H1          7.2845  -14.7464   -0.8331 H           1 HQ6       0.0467
     18 H2          5.7272  -14.3926   -1.6056 H           1 HQ6       0.0467
     19 H3          5.8803  -15.7877   -0.5150 H           1 HQ6       0.0467
     20 H4          7.6508  -13.5937    1.0150 H           1 HQ6       0.1856
     21 H5          5.6537  -11.9374    2.2269 H           1 HQ6       0.0610
     22 H6          7.0617  -13.9482    4.0687 H           1 HQ6       0.0671
     23 H7          5.3620  -15.2800    4.0360 H           1 HQ6       0.2101
     24 H8          8.5838  -12.4286    2.9985 H           1 HQ6       0.0645
     25 H9          9.0892  -10.8367    1.6285 H           1 HQ6       0.2100
     26 H10         6.8884   -9.8926    3.4070 H           1 HQ6       0.0678
     27 H11         9.3425  -10.3880    4.5924 H           1 HQ6       0.2102
     28 H12         7.7890  -11.9737    5.4814 H           1 HQ6       0.0900
     29 H13         6.4526   -9.3963    6.3843 H           1 HQ6       0.0614
     30 H14         8.2034   -9.3394    6.0615 H           1 HQ6       0.0614
     31 H15         8.0154   -9.9126    8.1059 H           1 HQ6       0.2097
     32 H16         5.2991  -10.8143    4.5014 H           1 HQ6       0.2019
     33 H17         5.3483  -11.2959    6.0901 H           1 HQ6       0.2019
     34 H18         5.3442  -13.4519    5.6679 H           1 HQ6       0.0840
     35 H19         4.2959  -12.7236    4.4496 H           1 HQ6       0.0840
@<TRIPOS>BOND
     1     1     2   2
     2     2     3   1
     3     2     4  am
     4     4     5   1
     5     5     6   1
     6     5     8   1
     7     6     7   1
     8     6    16   1
     9     8     9   1
    10     8    10   1
    11    10    11   1
    12    10    12   1
    13    12    13   1
    14    12    15   1
    15    13    14   1
    16    15    16   1
    17     3    17   1
    18     3    18   1
    19     3    19   1
    20     4    20   1
    21     5    21   1
    22     6    22   1
    23     7    23   1
    24     8    24   1
    25     9    25   1
    26    10    26   1
    27    11    27   1
    28    12    28   1
    29    13    29   1
    30    13    30   1
    31    14    31   1
    32    15    32   1
    33    15    33   1
    34    16    34   1
    35    16    35   1
@<TRIPOS>SUBSTRUCTURE
     1  HQ6      2

