@<TRIPOS>MOLECULE
2w66_ligand_041
    35    35
SMALL
GAST_HUCK
****
This file was generated by PARSER (from files_GN.cpp)

@<TRIPOS>ATOM
      1 O9          8.5480  -14.9239   -3.4615 O.2         1 HQ6      -0.3974
      2 C9          9.1651  -15.4519   -2.5421 C.2         1 HQ6       0.1733
      3 C10        10.4780  -15.9886   -2.8294 C.3         1 HQ6       0.0257
      4 N2          8.6754  -15.5386   -1.3140 N.am        1 HQ6      -0.2788
      5 C5          7.4068  -15.0444   -0.8431 C.3         1 HQ6       0.1012
      6 C6          6.2828  -16.0433   -1.2625 C.3         1 HQ6       0.1200
      7 O6          6.2273  -16.1993   -2.6823 O.3         1 HQ6      -0.3841
      8 C4          7.4877  -14.8161    0.7100 C.3         1 HQ6       0.1118
      9 O4          8.7518  -14.2297    1.0357 O.3         1 HQ6      -0.3866
     10 C3          6.3314  -13.9136    1.2603 C.3         1 HQ6       0.1276
     11 O3          6.7306  -13.2356    2.4566 O.3         1 HQ6      -0.3835
     12 C2          5.0142  -14.6878    1.5827 C.3         1 HQ6       0.0301
     13 C8          3.7924  -13.7443    1.7894 C.3         1 HQ6       0.0893
     14 O8          3.2192  -13.2869    0.5700 O.3         1 HQ6      -0.3894
     15 N1          4.6778  -15.8042    0.6616 N.4         1 HQ6       0.2346
     16 C7          4.8607  -15.6464   -0.7961 C.3         1 HQ6      -0.0043
     17 H1         10.9695  -16.3624   -1.9258 H           1 HQ6       0.0467
     18 H2         11.1094  -15.2108   -3.2649 H           1 HQ6       0.0467
     19 H3         10.3912  -16.8128   -3.5410 H           1 HQ6       0.0467
     20 H4          9.2472  -15.9512   -0.6494 H           1 HQ6       0.1856
     21 H5          7.2157  -14.0764   -1.3175 H           1 HQ6       0.0610
     22 H6          6.5202  -17.0268   -0.8480 H           1 HQ6       0.0671
     23 H7          5.7659  -15.4021   -3.0236 H           1 HQ6       0.2101
     24 H8          7.4728  -15.7876    1.2162 H           1 HQ6       0.0645
     25 H9          8.9023  -14.3838    1.9949 H           1 HQ6       0.2100
     26 H10         6.1149  -13.1334    0.5254 H           1 HQ6       0.0678
     27 H11         7.4357  -12.6076    2.1931 H           1 HQ6       0.2102
     28 H12         5.1772  -15.1873    2.5440 H           1 HQ6       0.0900
     29 H13         4.0750  -12.8748    2.3842 H           1 HQ6       0.0614
     30 H14         3.0125  -14.2779    2.3374 H           1 HQ6       0.0614
     31 H15         3.9500  -12.9227    0.0259 H           1 HQ6       0.2097
     32 H16         3.6982  -16.0459    0.8211 H           1 HQ6       0.2019
     33 H17         5.2327  -16.6175    0.9435 H           1 HQ6       0.2019
     34 H18         4.1492  -16.3347   -1.2558 H           1 HQ6       0.0840
     35 H19         4.6193  -14.6373   -1.1383 H           1 HQ6       0.0840
@<TRIPOS>BOND
     1     1     2   2
     2     2     3   1
     3     2     4  am
     4     4     5   1
     5     5     6   1
     6     5     8   1
     7     6     7   1
     8     6    16   1
     9     8     9   1
    10     8    10   1
    11    10    11   1
    12    10    12   1
    13    12    13   1
    14    12    15   1
    15    13    14   1
    16    15    16   1
    17     3    17   1
    18     3    18   1
    19     3    19   1
    20     4    20   1
    21     5    21   1
    22     6    22   1
    23     7    23   1
    24     8    24   1
    25     9    25   1
    26    10    26   1
    27    11    27   1
    28    12    28   1
    29    13    29   1
    30    13    30   1
    31    14    31   1
    32    15    32   1
    33    15    33   1
    34    16    34   1
    35    16    35   1
@<TRIPOS>SUBSTRUCTURE
     1  HQ6      2

