@<TRIPOS>MOLECULE
2w66_ligand_005
    35    35
SMALL
GAST_HUCK
****
This file was generated by PARSER (from files_GN.cpp)

@<TRIPOS>ATOM
      1 O9          6.4766  -18.2831    2.2078 O.2         1 HQ6      -0.3974
      2 C9          5.7803  -17.8118    3.1049 C.2         1 HQ6       0.1733
      3 C10         5.1403  -18.7289    4.0207 C.3         1 HQ6       0.0257
      4 N2          5.5512  -16.5091    3.2081 N.am        1 HQ6      -0.2788
      5 C5          6.0632  -15.4598    2.3413 C.3         1 HQ6       0.1012
      6 C6          4.9927  -15.1522    1.2446 C.3         1 HQ6       0.1200
      7 O6          4.7430  -16.3360    0.4866 O.3         1 HQ6      -0.3841
      8 C4          6.4368  -14.2241    3.2195 C.3         1 HQ6       0.1118
      9 O4          7.2738  -14.6434    4.3007 O.3         1 HQ6      -0.3866
     10 C3          7.1623  -13.0810    2.4328 C.3         1 HQ6       0.1276
     11 O3          7.9866  -12.3512    3.3449 O.3         1 HQ6      -0.3835
     12 C2          6.1956  -12.0925    1.7117 C.3         1 HQ6       0.0301
     13 C8          6.9368  -10.9192    1.0072 C.3         1 HQ6       0.0893
     14 O8          7.6920  -10.1112    1.9159 O.3         1 HQ6      -0.3894
     15 N1          5.2425  -12.6889    0.7279 N.4         1 HQ6       0.2346
     16 C7          5.3997  -14.0694    0.2215 C.3         1 HQ6      -0.0043
     17 H1          4.6009  -18.1945    4.8059 H           1 HQ6       0.0467
     18 H2          5.8915  -19.3624    4.4892 H           1 HQ6       0.0467
     19 H3          4.4318  -19.3614    3.4857 H           1 HQ6       0.0467
     20 H4          4.9306  -16.2354    3.9003 H           1 HQ6       0.1856
     21 H5          6.9738  -15.7899    1.8350 H           1 HQ6       0.0610
     22 H6          4.0570  -14.8442    1.7142 H           1 HQ6       0.0671
     23 H7          4.0213  -16.7996    0.9556 H           1 HQ6       0.2101
     24 H8          5.5231  -13.8354    3.6731 H           1 HQ6       0.0645
     25 H9          8.1617  -14.7874    3.9148 H           1 HQ6       0.2100
     26 H10         7.8354  -13.5176    1.6888 H           1 HQ6       0.0678
     27 H11         8.7414  -12.9463    3.5401 H           1 HQ6       0.2102
     28 H12         5.5732  -11.6324    2.4830 H           1 HQ6       0.0900
     29 H13         6.2052  -10.2551    0.5399 H           1 HQ6       0.0614
     30 H14         7.5967  -11.3096    0.2331 H           1 HQ6       0.0614
     31 H15         8.1293   -9.4231    1.3625 H           1 HQ6       0.2097
     32 H16         5.2593  -12.1135   -0.1149 H           1 HQ6       0.2019
     33 H17         4.3020  -12.6066    1.1259 H           1 HQ6       0.2019
     34 H18         4.7202  -14.1477   -0.6311 H           1 HQ6       0.0840
     35 H19         6.4085  -14.2313   -0.1602 H           1 HQ6       0.0840
@<TRIPOS>BOND
     1     1     2   2
     2     2     3   1
     3     2     4  am
     4     4     5   1
     5     5     6   1
     6     5     8   1
     7     6     7   1
     8     6    16   1
     9     8     9   1
    10     8    10   1
    11    10    11   1
    12    10    12   1
    13    12    13   1
    14    12    15   1
    15    13    14   1
    16    15    16   1
    17     3    17   1
    18     3    18   1
    19     3    19   1
    20     4    20   1
    21     5    21   1
    22     6    22   1
    23     7    23   1
    24     8    24   1
    25     9    25   1
    26    10    26   1
    27    11    27   1
    28    12    28   1
    29    13    29   1
    30    13    30   1
    31    14    31   1
    32    15    32   1
    33    15    33   1
    34    16    34   1
    35    16    35   1
@<TRIPOS>SUBSTRUCTURE
     1  HQ6      2

