@<TRIPOS>MOLECULE
2w66_ligand_016
    35    35
SMALL
GAST_HUCK
****
This file was generated by PARSER (from files_GN.cpp)

@<TRIPOS>ATOM
      1 O9          4.0095  -11.8183    1.8995 O.2         1 HQ6      -0.3974
      2 C9          4.2383  -13.0293    1.8535 C.2         1 HQ6       0.1733
      3 C10         3.4568  -13.8414    0.9631 C.3         1 HQ6       0.0257
      4 N2          5.1239  -13.5991    2.6659 N.am        1 HQ6      -0.2788
      5 C5          6.0092  -12.9889    3.6125 C.3         1 HQ6       0.1012
      6 C6          7.3162  -12.5100    2.9284 C.3         1 HQ6       0.1200
      7 O6          7.8175  -13.5556    2.1007 O.3         1 HQ6      -0.3841
      8 C4          5.3016  -11.8897    4.4694 C.3         1 HQ6       0.1118
      9 O4          4.0090  -12.3854    4.8458 O.3         1 HQ6      -0.3866
     10 C3          6.1010  -11.4212    5.7352 C.3         1 HQ6       0.1276
     11 O3          5.1488  -10.9148    6.6738 O.3         1 HQ6      -0.3835
     12 C2          7.2067  -10.3552    5.4497 C.3         1 HQ6       0.0301
     13 C8          7.8942   -9.8352    6.7453 C.3         1 HQ6       0.0893
     14 O8          6.9517   -9.2420    7.6570 O.3         1 HQ6      -0.3894
     15 N1          8.2939  -10.7514    4.5126 N.4         1 HQ6       0.2346
     16 C7          8.4309  -12.1050    3.9322 C.3         1 HQ6      -0.0043
     17 H1          3.8174  -14.8716    0.9275 H           1 HQ6       0.0467
     18 H2          3.5008  -13.4325   -0.0504 H           1 HQ6       0.0467
     19 H3          2.4174  -13.8493    1.2994 H           1 HQ6       0.0467
     20 H4          5.1862  -14.5714    2.5918 H           1 HQ6       0.1856
     21 H5          6.2716  -13.7994    4.3027 H           1 HQ6       0.0610
     22 H6          7.1001  -11.6599    2.2790 H           1 HQ6       0.0671
     23 H7          8.4620  -14.0515    2.6588 H           1 HQ6       0.2101
     24 H8          5.1150  -11.0105    3.8399 H           1 HQ6       0.0645
     25 H9          3.9731  -12.3204    5.8399 H           1 HQ6       0.2100
     26 H10         6.5588  -12.2972    6.2044 H           1 HQ6       0.0678
     27 H11         5.4796  -10.0084    6.9354 H           1 HQ6       0.2102
     28 H12         6.7230   -9.5066    4.9881 H           1 HQ6       0.0900
     29 H13         8.6277   -9.0504    6.4915 H           1 HQ6       0.0614
     30 H14         8.4197  -10.6451    7.2583 H           1 HQ6       0.0614
     31 H15         7.5149   -8.8980    8.3997 H           1 HQ6       0.2097
     32 H16         9.1717  -10.6277    5.0249 H           1 HQ6       0.2019
     33 H17         8.2998  -10.0827    3.7319 H           1 HQ6       0.2019
     34 H18         9.3858  -12.0954    3.3905 H           1 HQ6       0.0840
     35 H19         8.5247  -12.8443    4.7287 H           1 HQ6       0.0840
@<TRIPOS>BOND
     1     1     2   2
     2     2     3   1
     3     2     4  am
     4     4     5   1
     5     5     6   1
     6     5     8   1
     7     6     7   1
     8     6    16   1
     9     8     9   1
    10     8    10   1
    11    10    11   1
    12    10    12   1
    13    12    13   1
    14    12    15   1
    15    13    14   1
    16    15    16   1
    17     3    17   1
    18     3    18   1
    19     3    19   1
    20     4    20   1
    21     5    21   1
    22     6    22   1
    23     7    23   1
    24     8    24   1
    25     9    25   1
    26    10    26   1
    27    11    27   1
    28    12    28   1
    29    13    29   1
    30    13    30   1
    31    14    31   1
    32    15    32   1
    33    15    33   1
    34    16    34   1
    35    16    35   1
@<TRIPOS>SUBSTRUCTURE
     1  HQ6      2

