@<TRIPOS>MOLECULE
2w66_ligand_023
    35    35
SMALL
GAST_HUCK
****
This file was generated by PARSER (from files_GN.cpp)

@<TRIPOS>ATOM
      1 O9          3.2229  -11.2930    2.2891 O.2         1 HQ6      -0.3974
      2 C9          3.7014  -11.4081    1.1596 C.2         1 HQ6       0.1733
      3 C10         2.7861  -11.5728    0.0587 C.3         1 HQ6       0.0257
      4 N2          4.9974  -11.6393    0.9647 N.am        1 HQ6      -0.2788
      5 C5          6.0618  -11.7073    1.9364 C.3         1 HQ6       0.1012
      6 C6          6.7537  -10.3148    2.1116 C.3         1 HQ6       0.1200
      7 O6          6.7730   -9.5902    0.8818 O.3         1 HQ6      -0.3841
      8 C4          5.5658  -12.3637    3.2711 C.3         1 HQ6       0.1118
      9 O4          4.8797  -13.5866    2.9695 O.3         1 HQ6      -0.3866
     10 C3          6.6327  -12.7081    4.3586 C.3         1 HQ6       0.1276
     11 O3          5.9198  -13.2441    5.4771 O.3         1 HQ6      -0.3835
     12 C2          7.5285  -11.5034    4.7981 C.3         1 HQ6       0.0301
     13 C8          8.2401  -11.7088    6.1641 C.3         1 HQ6       0.0893
     14 O8          9.1564  -12.7977    6.1500 O.3         1 HQ6      -0.3894
     15 N1          8.5473  -11.2724    3.7415 N.4         1 HQ6       0.2346
     16 C7          8.2202  -10.3699    2.6203 C.3         1 HQ6      -0.0043
     17 H1          3.2876  -11.4043   -0.9038 H           1 HQ6       0.0467
     18 H2          1.9484  -10.8725    0.1307 H           1 HQ6       0.0467
     19 H3          2.3927  -12.5945    0.0887 H           1 HQ6       0.0467
     20 H4          5.2541  -11.7625    0.0308 H           1 HQ6       0.1856
     21 H5          6.8053  -12.3844    1.5017 H           1 HQ6       0.0610
     22 H6          6.1532   -9.7151    2.8021 H           1 HQ6       0.0671
     23 H7          6.8235  -10.2675    0.1743 H           1 HQ6       0.2101
     24 H8          4.8423  -11.6925    3.7430 H           1 HQ6       0.0645
     25 H9          3.9387  -13.3412    2.8448 H           1 HQ6       0.2100
     26 H10         7.2750  -13.5141    3.9833 H           1 HQ6       0.0678
     27 H11         5.3216  -12.5282    5.7858 H           1 HQ6       0.2102
     28 H12         6.9014  -10.6159    4.9225 H           1 HQ6       0.0900
     29 H13         7.4993  -11.8853    6.9420 H           1 HQ6       0.0614
     30 H14         8.7742  -10.7984    6.4341 H           1 HQ6       0.0614
     31 H15         9.9649  -12.4510    5.7188 H           1 HQ6       0.2097
     32 H16         8.8028  -12.1826    3.3504 H           1 HQ6       0.2019
     33 H17         9.3874  -10.9052    4.1962 H           1 HQ6       0.2019
     34 H18         8.5150   -9.3613    2.9137 H           1 HQ6       0.0840
     35 H19         8.8660  -10.6671    1.7916 H           1 HQ6       0.0840
@<TRIPOS>BOND
     1     1     2   2
     2     2     3   1
     3     2     4  am
     4     4     5   1
     5     5     6   1
     6     5     8   1
     7     6     7   1
     8     6    16   1
     9     8     9   1
    10     8    10   1
    11    10    11   1
    12    10    12   1
    13    12    13   1
    14    12    15   1
    15    13    14   1
    16    15    16   1
    17     3    17   1
    18     3    18   1
    19     3    19   1
    20     4    20   1
    21     5    21   1
    22     6    22   1
    23     7    23   1
    24     8    24   1
    25     9    25   1
    26    10    26   1
    27    11    27   1
    28    12    28   1
    29    13    29   1
    30    13    30   1
    31    14    31   1
    32    15    32   1
    33    15    33   1
    34    16    34   1
    35    16    35   1
@<TRIPOS>SUBSTRUCTURE
     1  HQ6      2

