@<TRIPOS>MOLECULE
2w66_ligand_010
    35    35
SMALL
GAST_HUCK
****
This file was generated by PARSER (from files_GN.cpp)

@<TRIPOS>ATOM
      1 O9          9.3790  -16.2730    1.5491 O.2         1 HQ6      -0.3974
      2 C9          8.8087  -16.6269    2.5738 C.2         1 HQ6       0.1733
      3 C10         9.4322  -17.6565    3.3673 C.3         1 HQ6       0.0257
      4 N2          7.6301  -16.1296    2.9336 N.am        1 HQ6      -0.2788
      5 C5          6.8691  -15.1112    2.2497 C.3         1 HQ6       0.1012
      6 C6          5.7062  -15.8131    1.4728 C.3         1 HQ6       0.1200
      7 O6          6.1859  -16.9692    0.7710 O.3         1 HQ6      -0.3841
      8 C4          6.3584  -14.0855    3.3156 C.3         1 HQ6       0.1118
      9 O4          7.3794  -13.8172    4.2756 O.3         1 HQ6      -0.3866
     10 C3          5.8730  -12.7092    2.7618 C.3         1 HQ6       0.1276
     11 O3          5.4858  -11.8882    3.8733 O.3         1 HQ6      -0.3835
     12 C2          4.6973  -12.7863    1.7450 C.3         1 HQ6       0.0301
     13 C8          4.1556  -11.3745    1.3582 C.3         1 HQ6       0.0893
     14 O8          5.1849  -10.5185    0.8677 O.3         1 HQ6      -0.3894
     15 N1          5.1467  -13.4773    0.5116 N.4         1 HQ6       0.2346
     16 C7          4.9432  -14.9339    0.4313 C.3         1 HQ6      -0.0043
     17 H1          8.8573  -17.8792    4.2728 H           1 HQ6       0.0467
     18 H2         10.4344  -17.3395    3.6636 H           1 HQ6       0.0467
     19 H3          9.5134  -18.5773    2.7833 H           1 HQ6       0.0467
     20 H4          7.2305  -16.5017    3.7345 H           1 HQ6       0.1856
     21 H5          7.4993  -14.5843    1.5264 H           1 HQ6       0.0610
     22 H6          4.9810  -16.1774    2.2065 H           1 HQ6       0.0671
     23 H7          6.2453  -17.6826    1.4431 H           1 HQ6       0.2101
     24 H8          5.5308  -14.5299    3.8776 H           1 HQ6       0.0645
     25 H9          8.2280  -13.8005    3.7901 H           1 HQ6       0.2100
     26 H10         6.7220  -12.2153    2.2824 H           1 HQ6       0.0678
     27 H11         4.7056  -12.3317    4.2652 H           1 HQ6       0.2102
     28 H12         3.8611  -13.3267    2.2071 H           1 HQ6       0.0900
     29 H13         3.6912  -10.8975    2.2209 H           1 HQ6       0.0614
     30 H14         3.3879  -11.4718    0.5863 H           1 HQ6       0.0614
     31 H15         5.4101  -10.8558   -0.0254 H           1 HQ6       0.2097
     32 H16         6.1383  -13.2819    0.3606 H           1 HQ6       0.2019
     33 H17         4.6334  -13.0734   -0.2667 H           1 HQ6       0.2019
     34 H18         3.8719  -15.1437    0.4888 H           1 HQ6       0.0840
     35 H19         5.2576  -15.2135   -0.5778 H           1 HQ6       0.0840
@<TRIPOS>BOND
     1     1     2   2
     2     2     3   1
     3     2     4  am
     4     4     5   1
     5     5     6   1
     6     5     8   1
     7     6     7   1
     8     6    16   1
     9     8     9   1
    10     8    10   1
    11    10    11   1
    12    10    12   1
    13    12    13   1
    14    12    15   1
    15    13    14   1
    16    15    16   1
    17     3    17   1
    18     3    18   1
    19     3    19   1
    20     4    20   1
    21     5    21   1
    22     6    22   1
    23     7    23   1
    24     8    24   1
    25     9    25   1
    26    10    26   1
    27    11    27   1
    28    12    28   1
    29    13    29   1
    30    13    30   1
    31    14    31   1
    32    15    32   1
    33    15    33   1
    34    16    34   1
    35    16    35   1
@<TRIPOS>SUBSTRUCTURE
     1  HQ6      2

