@<TRIPOS>MOLECULE
2w66_ligand_026
    35    35
SMALL
GAST_HUCK
****
This file was generated by PARSER (from files_GN.cpp)

@<TRIPOS>ATOM
      1 O9          9.3355  -15.7122   -0.9674 O.2         1 HQ6      -0.3974
      2 C9          8.5056  -16.6089   -0.9033 C.2         1 HQ6       0.1733
      3 C10         8.8383  -17.8789   -1.5065 C.3         1 HQ6       0.0257
      4 N2          7.3397  -16.4493   -0.2970 N.am        1 HQ6      -0.2788
      5 C5          6.8418  -15.2644    0.3521 C.3         1 HQ6       0.1012
      6 C6          5.3952  -15.0191   -0.1769 C.3         1 HQ6       0.1200
      7 O6          5.4314  -14.8213   -1.5952 O.3         1 HQ6      -0.3841
      8 C4          6.9273  -15.4588    1.9039 C.3         1 HQ6       0.1118
      9 O4          8.2250  -15.9749    2.2310 O.3         1 HQ6      -0.3866
     10 C3          6.6636  -14.1537    2.7191 C.3         1 HQ6       0.1276
     11 O3          7.3146  -14.2159    3.9911 O.3         1 HQ6      -0.3835
     12 C2          5.1477  -13.8417    2.9699 C.3         1 HQ6       0.0301
     13 C8          4.9108  -12.3846    3.4639 C.3         1 HQ6       0.0893
     14 O8          5.5976  -12.1034    4.6808 O.3         1 HQ6      -0.3894
     15 N1          4.2180  -14.1456    1.8467 N.4         1 HQ6       0.2346
     16 C7          4.6402  -13.8284    0.4670 C.3         1 HQ6      -0.0043
     17 H1          8.0232  -18.6018   -1.4130 H           1 HQ6       0.0467
     18 H2          9.7234  -18.2983   -1.0212 H           1 HQ6       0.0467
     19 H3          9.0525  -17.7424   -2.5701 H           1 HQ6       0.0467
     20 H4          6.7485  -17.2193   -0.2849 H           1 HQ6       0.1856
     21 H5          7.4474  -14.3945    0.0849 H           1 HQ6       0.0610
     22 H6          4.7990  -15.9256   -0.0112 H           1 HQ6       0.0671
     23 H7          6.0987  -14.1154   -1.7424 H           1 HQ6       0.2101
     24 H8          6.2113  -16.2275    2.2083 H           1 HQ6       0.0645
     25 H9          8.7398  -15.1992    2.5539 H           1 HQ6       0.2100
     26 H10         7.1190  -13.3086    2.1933 H           1 HQ6       0.0678
     27 H11         8.2427  -13.9772    3.8311 H           1 HQ6       0.2102
     28 H12         4.8218  -14.5056    3.7784 H           1 HQ6       0.0900
     29 H13         3.8463  -12.2184    3.6417 H           1 HQ6       0.0614
     30 H14         5.2451  -11.6730    2.7101 H           1 HQ6       0.0614
     31 H15         5.1326  -12.6239    5.3698 H           1 HQ6       0.2097
     32 H16         3.3506  -13.6418    2.0235 H           1 HQ6       0.2019
     33 H17         3.9886  -15.1406    1.8806 H           1 HQ6       0.2019
     34 H18         3.7298  -13.6508   -0.1054 H           1 HQ6       0.0840
     35 H19         5.2398  -12.9132    0.4219 H           1 HQ6       0.0840
@<TRIPOS>BOND
     1     1     2   2
     2     2     3   1
     3     2     4  am
     4     4     5   1
     5     5     6   1
     6     5     8   1
     7     6     7   1
     8     6    16   1
     9     8     9   1
    10     8    10   1
    11    10    11   1
    12    10    12   1
    13    12    13   1
    14    12    15   1
    15    13    14   1
    16    15    16   1
    17     3    17   1
    18     3    18   1
    19     3    19   1
    20     4    20   1
    21     5    21   1
    22     6    22   1
    23     7    23   1
    24     8    24   1
    25     9    25   1
    26    10    26   1
    27    11    27   1
    28    12    28   1
    29    13    29   1
    30    13    30   1
    31    14    31   1
    32    15    32   1
    33    15    33   1
    34    16    34   1
    35    16    35   1
@<TRIPOS>SUBSTRUCTURE
     1  HQ6      2

