@<TRIPOS>MOLECULE
2w66_ligand_047
    35    35
SMALL
GAST_HUCK
****
This file was generated by PARSER (from files_GN.cpp)

@<TRIPOS>ATOM
      1 O9          6.3007  -20.6070   -3.6772 O.2         1 HQ6      -0.3974
      2 C9          5.1404  -20.6255   -4.0762 C.2         1 HQ6       0.1733
      3 C10         4.6759  -21.7945   -4.7895 C.3         1 HQ6       0.0257
      4 N2          4.3029  -19.6281   -3.8234 N.am        1 HQ6      -0.2788
      5 C5          4.5415  -18.4611   -3.0049 C.3         1 HQ6       0.1012
      6 C6          4.1981  -18.7921   -1.5020 C.3         1 HQ6       0.1200
      7 O6          2.9102  -18.2470   -1.1824 O.3         1 HQ6      -0.3841
      8 C4          5.9068  -17.7603   -3.3156 C.3         1 HQ6       0.1118
      9 O4          6.0186  -17.6947   -4.7392 O.3         1 HQ6      -0.3866
     10 C3          6.0582  -16.3096   -2.7458 C.3         1 HQ6       0.1276
     11 O3          7.1191  -15.6407   -3.4261 O.3         1 HQ6      -0.3835
     12 C2          6.3920  -16.2294   -1.2164 C.3         1 HQ6       0.0301
     13 C8          6.5870  -14.7739   -0.6978 C.3         1 HQ6       0.0893
     14 O8          5.4572  -14.2671    0.0251 O.3         1 HQ6      -0.3894
     15 N1          5.3622  -16.8754   -0.3547 N.4         1 HQ6       0.2346
     16 C7          5.2194  -18.3456   -0.4289 C.3         1 HQ6      -0.0043
     17 H1          3.5908  -21.7561   -4.9882 H           1 HQ6       0.0467
     18 H2          4.8885  -22.6905   -4.1888 H           1 HQ6       0.0467
     19 H3          5.2137  -21.8696   -5.7443 H           1 HQ6       0.0467
     20 H4          3.3976  -19.7135   -4.1773 H           1 HQ6       0.1856
     21 H5          3.7744  -17.7570   -3.3523 H           1 HQ6       0.0610
     22 H6          4.0880  -19.8767   -1.3844 H           1 HQ6       0.0671
     23 H7          2.6609  -18.6263   -0.3036 H           1 HQ6       0.2101
     24 H8          6.7289  -18.3787   -2.9612 H           1 HQ6       0.0645
     25 H9          6.9606  -17.5325   -4.9363 H           1 HQ6       0.2100
     26 H10         5.1502  -15.7334   -2.9299 H           1 HQ6       0.0678
     27 H11         6.6767  -14.9553   -3.9620 H           1 HQ6       0.2102
     28 H12         7.3462  -16.7481   -1.0398 H           1 HQ6       0.0900
     29 H13         6.8103  -14.0851   -1.5239 H           1 HQ6       0.0614
     30 H14         7.4431  -14.7499   -0.0079 H           1 HQ6       0.0614
     31 H15         5.0771  -13.5458   -0.5350 H           1 HQ6       0.2097
     32 H16         4.4507  -16.4579   -0.5520 H           1 HQ6       0.2019
     33 H17         5.6025  -16.6677    0.6228 H           1 HQ6       0.2019
     34 H18         6.1798  -18.8495   -0.5814 H           1 HQ6       0.0840
     35 H19         4.8430  -18.6838    0.5451 H           1 HQ6       0.0840
@<TRIPOS>BOND
     1     1     2   2
     2     2     3   1
     3     2     4  am
     4     4     5   1
     5     5     6   1
     6     5     8   1
     7     6     7   1
     8     6    16   1
     9     8     9   1
    10     8    10   1
    11    10    11   1
    12    10    12   1
    13    12    13   1
    14    12    15   1
    15    13    14   1
    16    15    16   1
    17     3    17   1
    18     3    18   1
    19     3    19   1
    20     4    20   1
    21     5    21   1
    22     6    22   1
    23     7    23   1
    24     8    24   1
    25     9    25   1
    26    10    26   1
    27    11    27   1
    28    12    28   1
    29    13    29   1
    30    13    30   1
    31    14    31   1
    32    15    32   1
    33    15    33   1
    34    16    34   1
    35    16    35   1
@<TRIPOS>SUBSTRUCTURE
     1  HQ6      2

