@<TRIPOS>MOLECULE
2w66_ligand_025
    35    35
SMALL
GAST_HUCK
****
This file was generated by PARSER (from files_GN.cpp)

@<TRIPOS>ATOM
      1 O9          2.6125  -10.9731    2.0865 O.2         1 HQ6      -0.3974
      2 C9          3.1536  -11.2180    1.0168 C.2         1 HQ6       0.1733
      3 C10         2.3128  -11.3225   -0.1493 C.3         1 HQ6       0.0257
      4 N2          4.4545  -11.4697    0.9281 N.am        1 HQ6      -0.2788
      5 C5          5.3823  -11.5612    2.0257 C.3         1 HQ6       0.1012
      6 C6          5.3032  -13.0188    2.5804 C.3         1 HQ6       0.1200
      7 O6          3.9826  -13.2692    3.0747 O.3         1 HQ6      -0.3841
      8 C4          6.7954  -11.0880    1.5538 C.3         1 HQ6       0.1118
      9 O4          6.6451   -9.8469    0.8567 O.3         1 HQ6      -0.3866
     10 C3          7.8080  -10.8847    2.7268 C.3         1 HQ6       0.1276
     11 O3          8.8693  -10.0084    2.3419 O.3         1 HQ6      -0.3835
     12 C2          8.5021  -12.1828    3.2490 C.3         1 HQ6       0.0301
     13 C8          9.1800  -11.9990    4.6456 C.3         1 HQ6       0.0893
     14 O8          8.8088  -12.9915    5.6007 O.3         1 HQ6      -0.3894
     15 N1          7.6784  -13.4095    3.1761 N.4         1 HQ6       0.2346
     16 C7          6.3010  -13.3622    3.7168 C.3         1 HQ6      -0.0043
     17 H1          2.8826  -11.5380   -1.0544 H           1 HQ6       0.0467
     18 H2          1.7589  -10.4003   -0.3085 H           1 HQ6       0.0467
     19 H3          1.5936  -12.1220    0.0139 H           1 HQ6       0.0467
     20 H4          4.8011  -11.6827    0.0429 H           1 HQ6       0.1856
     21 H5          5.0671  -10.8754    2.8239 H           1 HQ6       0.0610
     22 H6          5.4705  -13.7226    1.7566 H           1 HQ6       0.0671
     23 H7          3.7390  -12.4663    3.5809 H           1 HQ6       0.2101
     24 H8          7.2148  -11.8046    0.8409 H           1 HQ6       0.0645
     25 H9          6.4565  -10.1103   -0.0662 H           1 HQ6       0.2100
     26 H10         7.2786  -10.3921    3.5408 H           1 HQ6       0.0678
     27 H11         8.4786   -9.1401    2.1171 H           1 HQ6       0.2102
     28 H12         9.3127  -12.4001    2.5459 H           1 HQ6       0.0900
     29 H13         8.9368  -11.0294    5.0859 H           1 HQ6       0.0614
     30 H14        10.2649  -12.0403    4.5424 H           1 HQ6       0.0614
     31 H15         9.4992  -12.9389    6.3026 H           1 HQ6       0.2097
     32 H16         8.2148  -14.1438    3.6407 H           1 HQ6       0.2019
     33 H17         7.6102  -13.6856    2.1863 H           1 HQ6       0.2019
     34 H18         6.0707  -14.3627    4.0926 H           1 HQ6       0.0840
     35 H19         6.2082  -12.6588    4.5479 H           1 HQ6       0.0840
@<TRIPOS>BOND
     1     1     2   2
     2     2     3   1
     3     2     4  am
     4     4     5   1
     5     5     6   1
     6     5     8   1
     7     6     7   1
     8     6    16   1
     9     8     9   1
    10     8    10   1
    11    10    11   1
    12    10    12   1
    13    12    13   1
    14    12    15   1
    15    13    14   1
    16    15    16   1
    17     3    17   1
    18     3    18   1
    19     3    19   1
    20     4    20   1
    21     5    21   1
    22     6    22   1
    23     7    23   1
    24     8    24   1
    25     9    25   1
    26    10    26   1
    27    11    27   1
    28    12    28   1
    29    13    29   1
    30    13    30   1
    31    14    31   1
    32    15    32   1
    33    15    33   1
    34    16    34   1
    35    16    35   1
@<TRIPOS>SUBSTRUCTURE
     1  HQ6      2

