@<TRIPOS>MOLECULE
2w66_ligand_058
    35    35
SMALL
GAST_HUCK
****
This file was generated by PARSER (from files_GN.cpp)

@<TRIPOS>ATOM
      1 O9          5.8209   -9.2770    2.5853 O.2         1 HQ6      -0.3974
      2 C9          5.8518  -10.3475    1.9943 C.2         1 HQ6       0.1733
      3 C10         5.1925  -10.4360    0.7147 C.3         1 HQ6       0.0257
      4 N2          6.4598  -11.4102    2.5030 N.am        1 HQ6      -0.2788
      5 C5          7.1197  -11.5075    3.7755 C.3         1 HQ6       0.1012
      6 C6          6.1320  -11.3360    4.9786 C.3         1 HQ6       0.1200
      7 O6          6.8331  -11.3120    6.2222 O.3         1 HQ6      -0.3841
      8 C4          7.9857  -12.8112    3.8132 C.3         1 HQ6       0.1118
      9 O4          8.5808  -12.9768    5.1015 O.3         1 HQ6      -0.3866
     10 C3          7.3184  -14.1632    3.3870 C.3         1 HQ6       0.1276
     11 O3          7.4499  -14.3447    1.9744 O.3         1 HQ6      -0.3835
     12 C2          5.8213  -14.3900    3.7628 C.3         1 HQ6       0.0301
     13 C8          5.4382  -15.8971    3.7830 C.3         1 HQ6       0.0893
     14 O8          6.2647  -16.6767    4.6427 O.3         1 HQ6      -0.3894
     15 N1          5.4651  -13.7758    5.0721 N.4         1 HQ6       0.2346
     16 C7          4.9864  -12.3744    5.0435 C.3         1 HQ6      -0.0043
     17 H1          5.6250   -9.7114    0.0257 H           1 HQ6       0.0467
     18 H2          4.1310  -10.2182    0.8394 H           1 HQ6       0.0467
     19 H3          5.2903  -11.4310    0.2773 H           1 HQ6       0.0467
     20 H4          6.4721  -12.1986    1.9411 H           1 HQ6       0.1856
     21 H5          7.8271  -10.6734    3.8367 H           1 HQ6       0.0610
     22 H6          5.6708  -10.3469    4.9000 H           1 HQ6       0.0671
     23 H7          6.1582  -11.1056    6.9048 H           1 HQ6       0.2101
     24 H8          8.8317  -12.6444    3.1407 H           1 HQ6       0.0645
     25 H9          9.1467  -12.1785    5.2395 H           1 HQ6       0.2100
     26 H10         7.9151  -14.9621    3.8314 H           1 HQ6       0.0678
     27 H11         8.4083  -14.4908    1.8290 H           1 HQ6       0.2102
     28 H12         5.1987  -13.9403    2.9809 H           1 HQ6       0.0900
     29 H13         5.5186  -16.3133    2.7723 H           1 HQ6       0.0614
     30 H14         4.4058  -16.0224    4.1083 H           1 HQ6       0.0614
     31 H15         6.2682  -16.2100    5.5022 H           1 HQ6       0.2097
     32 H16         6.2791  -13.8139    5.6779 H           1 HQ6       0.2019
     33 H17         4.7319  -14.3340    5.5034 H           1 HQ6       0.2019
     34 H18         4.2881  -12.2166    4.2180 H           1 HQ6       0.0840
     35 H19         4.4183  -12.2072    5.9620 H           1 HQ6       0.0840
@<TRIPOS>BOND
     1     1     2   2
     2     2     3   1
     3     2     4  am
     4     4     5   1
     5     5     6   1
     6     5     8   1
     7     6     7   1
     8     6    16   1
     9     8     9   1
    10     8    10   1
    11    10    11   1
    12    10    12   1
    13    12    13   1
    14    12    15   1
    15    13    14   1
    16    15    16   1
    17     3    17   1
    18     3    18   1
    19     3    19   1
    20     4    20   1
    21     5    21   1
    22     6    22   1
    23     7    23   1
    24     8    24   1
    25     9    25   1
    26    10    26   1
    27    11    27   1
    28    12    28   1
    29    13    29   1
    30    13    30   1
    31    14    31   1
    32    15    32   1
    33    15    33   1
    34    16    34   1
    35    16    35   1
@<TRIPOS>SUBSTRUCTURE
     1  HQ6      2

