@<TRIPOS>MOLECULE
2w66_ligand_015
    35    35
SMALL
GAST_HUCK
****
This file was generated by PARSER (from files_GN.cpp)

@<TRIPOS>ATOM
      1 O9          5.6271  -15.6216    3.9214 O.2         1 HQ6      -0.3974
      2 C9          6.7260  -15.1818    3.6055 C.2         1 HQ6       0.1733
      3 C10         7.7253  -16.1182    3.1510 C.3         1 HQ6       0.0257
      4 N2          7.0190  -13.8900    3.6964 N.am        1 HQ6      -0.2788
      5 C5          6.1441  -12.8472    4.1586 C.3         1 HQ6       0.1012
      6 C6          6.9324  -11.8149    5.0264 C.3         1 HQ6       0.1200
      7 O6          6.0143  -10.9383    5.6880 O.3         1 HQ6      -0.3841
      8 C4          5.2774  -12.2613    2.9967 C.3         1 HQ6       0.1118
      9 O4          4.4334  -11.2148    3.4737 O.3         1 HQ6      -0.3866
     10 C3          6.0001  -11.7789    1.6950 C.3         1 HQ6       0.1276
     11 O3          6.0406  -12.8751    0.7698 O.3         1 HQ6      -0.3835
     12 C2          7.4458  -11.2083    1.8588 C.3         1 HQ6       0.0301
     13 C8          7.8914  -10.4011    0.6092 C.3         1 HQ6       0.0893
     14 O8          9.2910  -10.1157    0.5837 O.3         1 HQ6      -0.3894
     15 N1          7.6031  -10.3278    3.0483 N.4         1 HQ6       0.2346
     16 C7          8.0283  -10.9863    4.3046 C.3         1 HQ6      -0.0043
     17 H1          7.3503  -16.6839    2.2947 H           1 HQ6       0.0467
     18 H2          7.9692  -16.8142    3.9544 H           1 HQ6       0.0467
     19 H3          8.6419  -15.6143    2.8458 H           1 HQ6       0.0467
     20 H4          7.9307  -13.6406    3.4657 H           1 HQ6       0.1856
     21 H5          5.4418  -13.3080    4.8646 H           1 HQ6       0.0610
     22 H6          7.4458  -12.3732    5.8159 H           1 HQ6       0.0671
     23 H7          6.5228  -10.5036    6.4058 H           1 HQ6       0.2101
     24 H8          4.5728  -13.0457    2.7141 H           1 HQ6       0.0645
     25 H9          5.0328  -10.4874    3.7336 H           1 HQ6       0.2100
     26 H10         5.3698  -11.0116    1.2281 H           1 HQ6       0.0678
     27 H11         5.8597  -12.4877   -0.1133 H           1 HQ6       0.2102
     28 H12         8.1400  -12.0530    1.9288 H           1 HQ6       0.0900
     29 H13         7.3519   -9.4516    0.5694 H           1 HQ6       0.0614
     30 H14         7.6589  -10.9669   -0.2911 H           1 HQ6       0.0614
     31 H15         9.6715  -10.5583    1.3697 H           1 HQ6       0.2097
     32 H16         6.7304   -9.8210    3.2074 H           1 HQ6       0.2019
     33 H17         8.3237   -9.6348    2.8187 H           1 HQ6       0.2019
     34 H18         8.8974  -11.6184    4.1060 H           1 HQ6       0.0840
     35 H19         8.3687  -10.1941    4.9785 H           1 HQ6       0.0840
@<TRIPOS>BOND
     1     1     2   2
     2     2     3   1
     3     2     4  am
     4     4     5   1
     5     5     6   1
     6     5     8   1
     7     6     7   1
     8     6    16   1
     9     8     9   1
    10     8    10   1
    11    10    11   1
    12    10    12   1
    13    12    13   1
    14    12    15   1
    15    13    14   1
    16    15    16   1
    17     3    17   1
    18     3    18   1
    19     3    19   1
    20     4    20   1
    21     5    21   1
    22     6    22   1
    23     7    23   1
    24     8    24   1
    25     9    25   1
    26    10    26   1
    27    11    27   1
    28    12    28   1
    29    13    29   1
    30    13    30   1
    31    14    31   1
    32    15    32   1
    33    15    33   1
    34    16    34   1
    35    16    35   1
@<TRIPOS>SUBSTRUCTURE
     1  HQ6      2

