@<TRIPOS>MOLECULE
2w66_ligand_054
    35    35
SMALL
GAST_HUCK
****
This file was generated by PARSER (from files_GN.cpp)

@<TRIPOS>ATOM
      1 O9          7.0318  -18.7296    0.9761 O.2         1 HQ6      -0.3974
      2 C9          6.8097  -17.5294    1.0461 C.2         1 HQ6       0.1733
      3 C10         5.5019  -17.0679    0.6418 C.3         1 HQ6       0.0257
      4 N2          7.7254  -16.6620    1.4682 N.am        1 HQ6      -0.2788
      5 C5          9.0732  -16.9336    1.8992 C.3         1 HQ6       0.1012
      6 C6          9.0729  -17.8578    3.1665 C.3         1 HQ6       0.1200
      7 O6          8.0722  -17.3969    4.0843 O.3         1 HQ6      -0.3841
      8 C4          9.9453  -17.4669    0.7080 C.3         1 HQ6       0.1118
      9 O4          9.5908  -16.7616   -0.4895 O.3         1 HQ6      -0.3866
     10 C3         11.4921  -17.3351    0.8631 C.3         1 HQ6       0.1276
     11 O3         12.0961  -17.7953   -0.3516 O.3         1 HQ6      -0.3835
     12 C2         12.1106  -18.0970    2.0778 C.3         1 HQ6       0.0301
     13 C8         13.6713  -18.0745    2.0715 C.3         1 HQ6       0.0893
     14 O8         14.2175  -16.7755    2.2878 O.3         1 HQ6      -0.3894
     15 N1         11.6440  -17.4972    3.3462 N.4         1 HQ6       0.2346
     16 C7         10.4116  -18.0470    3.9499 C.3         1 HQ6      -0.0043
     17 H1          5.4064  -15.9843    0.7365 H           1 HQ6       0.0467
     18 H2          4.7431  -17.5378    1.2703 H           1 HQ6       0.0467
     19 H3          5.3180  -17.3405   -0.4001 H           1 HQ6       0.0467
     20 H4          7.4617  -15.7306    1.4609 H           1 HQ6       0.1856
     21 H5          9.4829  -15.9683    2.1987 H           1 HQ6       0.0610
     22 H6          8.7427  -18.8484    2.8506 H           1 HQ6       0.0671
     23 H7          8.4653  -16.6178    4.5347 H           1 HQ6       0.2101
     24 H8          9.7041  -18.5197    0.5327 H           1 HQ6       0.0645
     25 H9          9.7971  -15.8213   -0.3104 H           1 HQ6       0.2100
     26 H10        11.7334  -16.2738    0.9581 H           1 HQ6       0.0678
     27 H11        11.8843  -18.7520   -0.4062 H           1 HQ6       0.2102
     28 H12        11.8169  -19.1505    2.0215 H           1 HQ6       0.0900
     29 H13        14.0434  -18.4413    1.1147 H           1 HQ6       0.0614
     30 H14        14.0510  -18.7460    2.8476 H           1 HQ6       0.0614
     31 H15        14.1889  -16.6219    3.2574 H           1 HQ6       0.2097
     32 H16        11.5147  -16.4968    3.2012 H           1 HQ6       0.2019
     33 H17        12.3795  -17.6161    4.0452 H           1 HQ6       0.2019
     34 H18        10.5681  -19.1145    4.1435 H           1 HQ6       0.0840
     35 H19        10.3351  -17.5720    4.9314 H           1 HQ6       0.0840
@<TRIPOS>BOND
     1     1     2   2
     2     2     3   1
     3     2     4  am
     4     4     5   1
     5     5     6   1
     6     5     8   1
     7     6     7   1
     8     6    16   1
     9     8     9   1
    10     8    10   1
    11    10    11   1
    12    10    12   1
    13    12    13   1
    14    12    15   1
    15    13    14   1
    16    15    16   1
    17     3    17   1
    18     3    18   1
    19     3    19   1
    20     4    20   1
    21     5    21   1
    22     6    22   1
    23     7    23   1
    24     8    24   1
    25     9    25   1
    26    10    26   1
    27    11    27   1
    28    12    28   1
    29    13    29   1
    30    13    30   1
    31    14    31   1
    32    15    32   1
    33    15    33   1
    34    16    34   1
    35    16    35   1
@<TRIPOS>SUBSTRUCTURE
     1  HQ6      2

