@<TRIPOS>MOLECULE
2w66_ligand_049
    35    35
SMALL
GAST_HUCK
****
This file was generated by PARSER (from files_GN.cpp)

@<TRIPOS>ATOM
      1 O9          5.3404  -16.8301   -1.1630 O.2         1 HQ6      -0.3974
      2 C9          6.5443  -16.8428   -0.9516 C.2         1 HQ6       0.1733
      3 C10         7.3874  -17.5379   -1.8922 C.3         1 HQ6       0.0257
      4 N2          7.0838  -16.1630    0.0533 N.am        1 HQ6      -0.2788
      5 C5          6.4013  -15.3592    1.0361 C.3         1 HQ6       0.1012
      6 C6          6.7824  -15.9163    2.4378 C.3         1 HQ6       0.1200
      7 O6          6.3225  -17.2663    2.5586 O.3         1 HQ6      -0.3841
      8 C4          6.7885  -13.8647    0.7913 C.3         1 HQ6       0.1118
      9 O4          6.6486  -13.5828   -0.6054 O.3         1 HQ6      -0.3866
     10 C3          5.9344  -12.8355    1.6024 C.3         1 HQ6       0.1276
     11 O3          5.9673  -11.5325    0.9921 O.3         1 HQ6      -0.3835
     12 C2          6.3637  -12.6277    3.0914 C.3         1 HQ6       0.0301
     13 C8          5.2405  -11.9309    3.9144 C.3         1 HQ6       0.0893
     14 O8          5.4940  -11.9597    5.3187 O.3         1 HQ6      -0.3894
     15 N1          6.8954  -13.8273    3.7836 N.4         1 HQ6       0.2346
     16 C7          6.1980  -15.1210    3.6257 C.3         1 HQ6      -0.0043
     17 H1          8.4452  -17.4604   -1.6294 H           1 HQ6       0.0467
     18 H2          7.2514  -17.1078   -2.8876 H           1 HQ6       0.0467
     19 H3          7.1161  -18.5957   -1.9252 H           1 HQ6       0.0467
     20 H4          8.0586  -16.1717    0.1090 H           1 HQ6       0.1856
     21 H5          5.3209  -15.4523    0.9241 H           1 HQ6       0.0610
     22 H6          7.8755  -15.9364    2.5353 H           1 HQ6       0.0671
     23 H7          6.9563  -17.8127    2.0421 H           1 HQ6       0.2101
     24 H8          7.8447  -13.7213    1.0388 H           1 HQ6       0.0645
     25 H9          5.6884  -13.4432   -0.7521 H           1 HQ6       0.2100
     26 H10         4.8911  -13.1610    1.5551 H           1 HQ6       0.0678
     27 H11         5.8236  -11.6686    0.0188 H           1 HQ6       0.2102
     28 H12         7.2118  -11.9405    3.0907 H           1 HQ6       0.0900
     29 H13         4.2655  -12.3899    3.7248 H           1 HQ6       0.0614
     30 H14         5.1793  -10.8779    3.6194 H           1 HQ6       0.0614
     31 H15         5.0206  -12.7602    5.6471 H           1 HQ6       0.2097
     32 H16         6.9172  -13.6070    4.7886 H           1 HQ6       0.2019
     33 H17         7.8779  -13.9606    3.4950 H           1 HQ6       0.2019
     34 H18         6.3809  -15.6894    4.5482 H           1 HQ6       0.0840
     35 H19         5.1259  -14.9899    3.5275 H           1 HQ6       0.0840
@<TRIPOS>BOND
     1     1     2   2
     2     2     3   1
     3     2     4  am
     4     4     5   1
     5     5     6   1
     6     5     8   1
     7     6     7   1
     8     6    16   1
     9     8     9   1
    10     8    10   1
    11    10    11   1
    12    10    12   1
    13    12    13   1
    14    12    15   1
    15    13    14   1
    16    15    16   1
    17     3    17   1
    18     3    18   1
    19     3    19   1
    20     4    20   1
    21     5    21   1
    22     6    22   1
    23     7    23   1
    24     8    24   1
    25     9    25   1
    26    10    26   1
    27    11    27   1
    28    12    28   1
    29    13    29   1
    30    13    30   1
    31    14    31   1
    32    15    32   1
    33    15    33   1
    34    16    34   1
    35    16    35   1
@<TRIPOS>SUBSTRUCTURE
     1  HQ6      2

