@<TRIPOS>MOLECULE
2w66_ligand_050
    35    35
SMALL
GAST_HUCK
****
This file was generated by PARSER (from files_GN.cpp)

@<TRIPOS>ATOM
      1 O9          2.8745  -13.8664    1.9068 O.2         1 HQ6      -0.3974
      2 C9          3.9656  -13.7467    1.3668 C.2         1 HQ6       0.1733
      3 C10         4.1500  -14.3419    0.0685 C.3         1 HQ6       0.0257
      4 N2          4.9645  -13.0935    1.9433 N.am        1 HQ6      -0.2788
      5 C5          5.0016  -12.4858    3.2439 C.3         1 HQ6       0.1012
      6 C6          5.9477  -13.2966    4.1795 C.3         1 HQ6       0.1200
      7 O6          5.9234  -12.7911    5.5157 O.3         1 HQ6      -0.3841
      8 C4          5.3241  -10.9627    3.1125 C.3         1 HQ6       0.1118
      9 O4          5.4791  -10.3700    4.4111 O.3         1 HQ6      -0.3866
     10 C3          6.5101  -10.5252    2.1798 C.3         1 HQ6       0.1276
     11 O3          5.9897  -10.3813    0.8558 O.3         1 HQ6      -0.3835
     12 C2          7.7858  -11.4349    2.1495 C.3         1 HQ6       0.0301
     13 C8          9.0474  -10.6467    1.7157 C.3         1 HQ6       0.0893
     14 O8          9.0464  -10.3436    0.3243 O.3         1 HQ6      -0.3894
     15 N1          8.0836  -12.0923    3.4494 N.4         1 HQ6       0.2346
     16 C7          7.4213  -13.3904    3.7060 C.3         1 HQ6      -0.0043
     17 H1          3.4899  -13.8498   -0.6379 H           1 HQ6       0.0467
     18 H2          3.9113  -15.4044    0.0980 H           1 HQ6       0.0467
     19 H3          5.1779  -14.2327   -0.2840 H           1 HQ6       0.0467
     20 H4          5.7856  -13.0372    1.4223 H           1 HQ6       0.1856
     21 H5          4.0210  -12.5474    3.7200 H           1 HQ6       0.0610
     22 H6          5.5653  -14.3261    4.2494 H           1 HQ6       0.0671
     23 H7          4.9891  -12.7979    5.7877 H           1 HQ6       0.2101
     24 H8          4.4158  -10.4995    2.7109 H           1 HQ6       0.0645
     25 H9          6.3808   -9.9643    4.4177 H           1 HQ6       0.2100
     26 H10         6.8027   -9.5250    2.4932 H           1 HQ6       0.0678
     27 H11         6.6965   -9.9446    0.3431 H           1 HQ6       0.2102
     28 H12         7.6528  -12.2069    1.3818 H           1 HQ6       0.0900
     29 H13         9.9310  -11.2536    1.8866 H           1 HQ6       0.0614
     30 H14         9.1358   -9.7298    2.2965 H           1 HQ6       0.0614
     31 H15         8.9010   -9.3742    0.2822 H           1 HQ6       0.2097
     32 H16         7.8626  -11.4507    4.2059 H           1 HQ6       0.2019
     33 H17         9.0826  -12.2819    3.4814 H           1 HQ6       0.2019
     34 H18         7.4857  -14.0402    2.8249 H           1 HQ6       0.0840
     35 H19         7.9981  -13.8879    4.4920 H           1 HQ6       0.0840
@<TRIPOS>BOND
     1     1     2   2
     2     2     3   1
     3     2     4  am
     4     4     5   1
     5     5     6   1
     6     5     8   1
     7     6     7   1
     8     6    16   1
     9     8     9   1
    10     8    10   1
    11    10    11   1
    12    10    12   1
    13    12    13   1
    14    12    15   1
    15    13    14   1
    16    15    16   1
    17     3    17   1
    18     3    18   1
    19     3    19   1
    20     4    20   1
    21     5    21   1
    22     6    22   1
    23     7    23   1
    24     8    24   1
    25     9    25   1
    26    10    26   1
    27    11    27   1
    28    12    28   1
    29    13    29   1
    30    13    30   1
    31    14    31   1
    32    15    32   1
    33    15    33   1
    34    16    34   1
    35    16    35   1
@<TRIPOS>SUBSTRUCTURE
     1  HQ6      2

