@<TRIPOS>MOLECULE
2w66_ligand_045
    35    35
SMALL
GAST_HUCK
****
This file was generated by PARSER (from files_GN.cpp)

@<TRIPOS>ATOM
      1 O9          8.1277  -20.6764   -3.3798 O.2         1 HQ6      -0.3974
      2 C9          8.1586  -19.9874   -2.3667 C.2         1 HQ6       0.1733
      3 C10         8.3177  -20.6493   -1.0988 C.3         1 HQ6       0.0257
      4 N2          8.0590  -18.6656   -2.4242 N.am        1 HQ6      -0.2788
      5 C5          7.8943  -17.8571   -3.6014 C.3         1 HQ6       0.1012
      6 C6          6.3913  -17.7596   -4.0291 C.3         1 HQ6       0.1200
      7 O6          6.2527  -17.1270   -5.3071 O.3         1 HQ6      -0.3841
      8 C4          8.6234  -16.4826   -3.4283 C.3         1 HQ6       0.1118
      9 O4          8.3639  -15.6306   -4.5487 O.3         1 HQ6      -0.3866
     10 C3          8.3697  -15.6789   -2.1115 C.3         1 HQ6       0.1276
     11 O3          9.2431  -16.1710   -1.0901 O.3         1 HQ6      -0.3835
     12 C2          6.9125  -15.6529   -1.5369 C.3         1 HQ6       0.0301
     13 C8          6.6641  -14.3835   -0.6736 C.3         1 HQ6       0.0893
     14 O8          5.3387  -14.3526   -0.1460 O.3         1 HQ6      -0.3894
     15 N1          5.8611  -15.7238   -2.5881 N.4         1 HQ6       0.2346
     16 C7          5.4378  -17.0796   -3.0136 C.3         1 HQ6      -0.0043
     17 H1          9.2556  -21.1987   -1.0869 H           1 HQ6       0.0467
     18 H2          7.4982  -21.3482   -0.9420 H           1 HQ6       0.0467
     19 H3          8.3254  -19.9411   -0.2708 H           1 HQ6       0.0467
     20 H4          8.1272  -18.1969   -1.5815 H           1 HQ6       0.1856
     21 H5          8.4130  -18.3537   -4.4316 H           1 HQ6       0.0610
     22 H6          6.0229  -18.7809   -4.1836 H           1 HQ6       0.0671
     23 H7          5.7887  -16.2746   -5.1351 H           1 HQ6       0.2101
     24 H8          9.6989  -16.6867   -3.4744 H           1 HQ6       0.0645
     25 H9          8.5154  -16.1893   -5.3373 H           1 HQ6       0.2100
     26 H10         8.6792  -14.6497   -2.3179 H           1 HQ6       0.0678
     27 H11         9.9009  -15.4580   -0.9437 H           1 HQ6       0.2102
     28 H12         6.7910  -16.5071   -0.8606 H           1 HQ6       0.0900
     29 H13         6.8288  -13.4856   -1.2737 H           1 HQ6       0.0614
     30 H14         7.3577  -14.3668    0.1666 H           1 HQ6       0.0614
     31 H15         4.9121  -13.5918   -0.5931 H           1 HQ6       0.2097
     32 H16         6.1638  -15.1892   -3.4036 H           1 HQ6       0.2019
     33 H17         5.0256  -15.2665   -2.2213 H           1 HQ6       0.2019
     34 H18         5.2925  -17.7299   -2.1492 H           1 HQ6       0.0840
     35 H19         4.4640  -16.9750   -3.4945 H           1 HQ6       0.0840
@<TRIPOS>BOND
     1     1     2   2
     2     2     3   1
     3     2     4  am
     4     4     5   1
     5     5     6   1
     6     5     8   1
     7     6     7   1
     8     6    16   1
     9     8     9   1
    10     8    10   1
    11    10    11   1
    12    10    12   1
    13    12    13   1
    14    12    15   1
    15    13    14   1
    16    15    16   1
    17     3    17   1
    18     3    18   1
    19     3    19   1
    20     4    20   1
    21     5    21   1
    22     6    22   1
    23     7    23   1
    24     8    24   1
    25     9    25   1
    26    10    26   1
    27    11    27   1
    28    12    28   1
    29    13    29   1
    30    13    30   1
    31    14    31   1
    32    15    32   1
    33    15    33   1
    34    16    34   1
    35    16    35   1
@<TRIPOS>SUBSTRUCTURE
     1  HQ6      2

