@<TRIPOS>MOLECULE
2w66_ligand_019
    35    35
SMALL
GAST_HUCK
****
This file was generated by PARSER (from files_GN.cpp)

@<TRIPOS>ATOM
      1 O9          5.4801  -14.5080    1.1816 O.2         1 HQ6      -0.3974
      2 C9          4.8780  -13.4819    1.4676 C.2         1 HQ6       0.1733
      3 C10         3.4503  -13.5608    1.6766 C.3         1 HQ6       0.0257
      4 N2          5.5105  -12.3265    1.6301 N.am        1 HQ6      -0.2788
      5 C5          6.9252  -12.0943    1.5232 C.3         1 HQ6       0.1012
      6 C6          7.2191  -10.5642    1.4134 C.3         1 HQ6       0.1200
      7 O6          8.5792  -10.3483    1.0317 O.3         1 HQ6      -0.3841
      8 C4          7.7496  -12.8339    2.6312 C.3         1 HQ6       0.1118
      9 O4          9.1157  -12.4164    2.5725 O.3         1 HQ6      -0.3866
     10 C3          7.2569  -12.7374    4.1105 C.3         1 HQ6       0.1276
     11 O3          6.2258  -13.7082    4.3217 O.3         1 HQ6      -0.3835
     12 C2          6.7565  -11.3383    4.5959 C.3         1 HQ6       0.0301
     13 C8          6.8244  -11.1800    6.1415 C.3         1 HQ6       0.0893
     14 O8          8.0836  -11.5749    6.6810 O.3         1 HQ6      -0.3894
     15 N1          7.4777  -10.2072    3.9485 N.4         1 HQ6       0.2346
     16 C7          6.8973   -9.7187    2.6738 C.3         1 HQ6      -0.0043
     17 H1          3.2512  -14.2113    2.5292 H           1 HQ6       0.0467
     18 H2          2.9602  -13.9796    0.7956 H           1 HQ6       0.0467
     19 H3          3.0179  -12.5771    1.8801 H           1 HQ6       0.0467
     20 H4          4.9589  -11.5594    1.8411 H           1 HQ6       0.1856
     21 H5          7.2432  -12.5213    0.5661 H           1 HQ6       0.0610
     22 H6          6.6183  -10.1677    0.5889 H           1 HQ6       0.0671
     23 H7          8.6218   -9.4161    0.7369 H           1 HQ6       0.2101
     24 H8          7.7645  -13.8973    2.3680 H           1 HQ6       0.0645
     25 H9          9.6500  -13.2304    2.6571 H           1 HQ6       0.2100
     26 H10         8.0995  -13.0477    4.7376 H           1 HQ6       0.0678
     27 H11         5.9056  -13.5579    5.2356 H           1 HQ6       0.2102
     28 H12         5.6923  -11.2664    4.3508 H           1 HQ6       0.0900
     29 H13         6.0491  -11.7885    6.6101 H           1 HQ6       0.0614
     30 H14         6.6430  -10.1369    6.4144 H           1 HQ6       0.0614
     31 H15         8.7338  -10.9179    6.3529 H           1 HQ6       0.2097
     32 H16         8.4566  -10.4662    3.7997 H           1 HQ6       0.2019
     33 H17         7.4634   -9.4166    4.5965 H           1 HQ6       0.2019
     34 H18         5.8154   -9.6220    2.7742 H           1 HQ6       0.0840
     35 H19         7.2805   -8.7109    2.5135 H           1 HQ6       0.0840
@<TRIPOS>BOND
     1     1     2   2
     2     2     3   1
     3     2     4  am
     4     4     5   1
     5     5     6   1
     6     5     8   1
     7     6     7   1
     8     6    16   1
     9     8     9   1
    10     8    10   1
    11    10    11   1
    12    10    12   1
    13    12    13   1
    14    12    15   1
    15    13    14   1
    16    15    16   1
    17     3    17   1
    18     3    18   1
    19     3    19   1
    20     4    20   1
    21     5    21   1
    22     6    22   1
    23     7    23   1
    24     8    24   1
    25     9    25   1
    26    10    26   1
    27    11    27   1
    28    12    28   1
    29    13    29   1
    30    13    30   1
    31    14    31   1
    32    15    32   1
    33    15    33   1
    34    16    34   1
    35    16    35   1
@<TRIPOS>SUBSTRUCTURE
     1  HQ6      2

