@<TRIPOS>MOLECULE
2w66_ligand_004
    35    35
SMALL
GAST_HUCK
****
This file was generated by PARSER (from files_GN.cpp)

@<TRIPOS>ATOM
      1 O9          7.0831  -15.1496   -0.3605 O.2         1 HQ6      -0.3974
      2 C9          7.7192  -14.9630    0.6689 C.2         1 HQ6       0.1733
      3 C10         8.6538  -15.9795    1.0851 C.3         1 HQ6       0.0257
      4 N2          7.5860  -13.8454    1.3754 N.am        1 HQ6      -0.2788
      5 C5          6.7632  -12.7184    1.0370 C.3         1 HQ6       0.1012
      6 C6          5.2876  -12.9298    1.4803 C.3         1 HQ6       0.1200
      7 O6          4.4321  -11.9266    0.9183 O.3         1 HQ6      -0.3841
      8 C4          7.4357  -11.3753    1.4835 C.3         1 HQ6       0.1118
      9 O4          6.5931  -10.2637    1.1580 O.3         1 HQ6      -0.3866
     10 C3          7.8988  -11.2416    2.9701 C.3         1 HQ6       0.1276
     11 O3          9.2861  -11.6043    3.0793 O.3         1 HQ6      -0.3835
     12 C2          7.0833  -12.0054    4.0739 C.3         1 HQ6       0.0301
     13 C8          7.4741  -11.5572    5.5079 C.3         1 HQ6       0.0893
     14 O8          7.7379  -10.1557    5.6478 O.3         1 HQ6      -0.3894
     15 N1          5.6108  -11.9225    3.8213 N.4         1 HQ6       0.2346
     16 C7          5.0184  -13.0113    3.0050 C.3         1 HQ6      -0.0043
     17 H1          9.4062  -16.1159    0.3063 H           1 HQ6       0.0467
     18 H2          8.1230  -16.9194    1.2387 H           1 HQ6       0.0467
     19 H3          9.1630  -15.7093    2.0124 H           1 HQ6       0.0467
     20 H4          8.1249  -13.7773    2.1821 H           1 HQ6       0.1856
     21 H5          6.7370  -12.6394   -0.0669 H           1 HQ6       0.0610
     22 H6          4.9425  -13.8675    1.0368 H           1 HQ6       0.0671
     23 H7          4.6245  -11.9064   -0.0453 H           1 HQ6       0.2101
     24 H8          8.3215  -11.2247    0.8632 H           1 HQ6       0.0645
     25 H9          6.3688  -10.3791    0.2116 H           1 HQ6       0.2100
     26 H10         7.8780  -10.1748    3.2115 H           1 HQ6       0.0678
     27 H11         9.3181  -12.5836    3.0896 H           1 HQ6       0.2102
     28 H12         7.3721  -13.0609    4.0224 H           1 HQ6       0.0900
     29 H13         8.3768  -12.1084    5.8247 H           1 HQ6       0.0614
     30 H14         6.6784  -11.8265    6.2103 H           1 HQ6       0.0614
     31 H15         8.6390  -10.1005    6.0499 H           1 HQ6       0.2097
     32 H16         5.3900  -11.0320    3.3800 H           1 HQ6       0.2019
     33 H17         5.1371  -11.9471    4.7178 H           1 HQ6       0.2019
     34 H18         5.3458  -13.9866    3.3726 H           1 HQ6       0.0840
     35 H19         3.9437  -12.9812    3.1461 H           1 HQ6       0.0840
@<TRIPOS>BOND
     1     1     2   2
     2     2     3   1
     3     2     4  am
     4     4     5   1
     5     5     6   1
     6     5     8   1
     7     6     7   1
     8     6    16   1
     9     8     9   1
    10     8    10   1
    11    10    11   1
    12    10    12   1
    13    12    13   1
    14    12    15   1
    15    13    14   1
    16    15    16   1
    17     3    17   1
    18     3    18   1
    19     3    19   1
    20     4    20   1
    21     5    21   1
    22     6    22   1
    23     7    23   1
    24     8    24   1
    25     9    25   1
    26    10    26   1
    27    11    27   1
    28    12    28   1
    29    13    29   1
    30    13    30   1
    31    14    31   1
    32    15    32   1
    33    15    33   1
    34    16    34   1
    35    16    35   1
@<TRIPOS>SUBSTRUCTURE
     1  HQ6      2

