@<TRIPOS>MOLECULE
2w66_ligand_007
    35    35
SMALL
GAST_HUCK
****
This file was generated by PARSER (from files_GN.cpp)

@<TRIPOS>ATOM
      1 O9          5.5201   -9.3446    6.2922 O.2         1 HQ6      -0.3974
      2 C9          6.6684   -9.7666    6.3065 C.2         1 HQ6       0.1733
      3 C10         7.3840   -9.7539    7.5626 C.3         1 HQ6       0.0257
      4 N2          7.2807  -10.1814    5.2067 N.am        1 HQ6      -0.2788
      5 C5          6.7826  -10.1201    3.8564 C.3         1 HQ6       0.1012
      6 C6          7.9896  -10.1496    2.8730 C.3         1 HQ6       0.1200
      7 O6          7.5821   -9.8358    1.5369 O.3         1 HQ6      -0.3841
      8 C4          5.6605  -11.1611    3.5247 C.3         1 HQ6       0.1118
      9 O4          5.3325  -11.1441    2.1301 O.3         1 HQ6      -0.3866
     10 C3          5.8652  -12.6471    3.9565 C.3         1 HQ6       0.1276
     11 O3          5.4837  -12.7997    5.3278 O.3         1 HQ6      -0.3835
     12 C2          7.2683  -13.3004    3.7446 C.3         1 HQ6       0.0301
     13 C8          7.1646  -14.8335    3.4638 C.3         1 HQ6       0.0893
     14 O8          5.9994  -15.4509    4.0148 O.3         1 HQ6      -0.3894
     15 N1          8.0753  -12.7116    2.6396 N.4         1 HQ6       0.2346
     16 C7          8.8206  -11.4555    2.8949 C.3         1 HQ6      -0.0043
     17 H1          6.8355  -10.3450    8.3020 H           1 HQ6       0.0467
     18 H2          7.4655   -8.7222    7.9206 H           1 HQ6       0.0467
     19 H3          8.3941  -10.1690    7.4625 H           1 HQ6       0.0467
     20 H4          8.2091  -10.4574    5.3241 H           1 HQ6       0.1856
     21 H5          6.3327   -9.1276    3.7183 H           1 HQ6       0.0610
     22 H6          8.6679   -9.3401    3.1649 H           1 HQ6       0.0671
     23 H7          8.3442  -10.0694    0.9613 H           1 HQ6       0.2101
     24 H8          4.7489  -10.8104    4.0185 H           1 HQ6       0.0645
     25 H9          5.2869  -10.1973    1.8761 H           1 HQ6       0.2100
     26 H10         5.1309  -13.2313    3.3958 H           1 HQ6       0.0678
     27 H11         6.1833  -12.3596    5.8504 H           1 HQ6       0.2102
     28 H12         7.8435  -13.1924    4.6697 H           1 HQ6       0.0900
     29 H13         8.0474  -15.3453    3.8743 H           1 HQ6       0.0614
     30 H14         7.1407  -15.0118    2.3786 H           1 HQ6       0.0614
     31 H15         6.1797  -15.5598    4.9731 H           1 HQ6       0.2097
     32 H16         7.4969  -12.6062    1.8013 H           1 HQ6       0.2019
     33 H17         8.8085  -13.4006    2.4496 H           1 HQ6       0.2019
     34 H18         9.3641  -11.5403    3.8430 H           1 HQ6       0.0840
     35 H19         9.5788  -11.3839    2.1115 H           1 HQ6       0.0840
@<TRIPOS>BOND
     1     1     2   2
     2     2     3   1
     3     2     4  am
     4     4     5   1
     5     5     6   1
     6     5     8   1
     7     6     7   1
     8     6    16   1
     9     8     9   1
    10     8    10   1
    11    10    11   1
    12    10    12   1
    13    12    13   1
    14    12    15   1
    15    13    14   1
    16    15    16   1
    17     3    17   1
    18     3    18   1
    19     3    19   1
    20     4    20   1
    21     5    21   1
    22     6    22   1
    23     7    23   1
    24     8    24   1
    25     9    25   1
    26    10    26   1
    27    11    27   1
    28    12    28   1
    29    13    29   1
    30    13    30   1
    31    14    31   1
    32    15    32   1
    33    15    33   1
    34    16    34   1
    35    16    35   1
@<TRIPOS>SUBSTRUCTURE
     1  HQ6      2

