@<TRIPOS>MOLECULE
2w66_ligand_046
    35    35
SMALL
GAST_HUCK
****
This file was generated by PARSER (from files_GN.cpp)

@<TRIPOS>ATOM
      1 O9          9.7220  -16.2485   -4.4392 O.2         1 HQ6      -0.3974
      2 C9          9.7615  -15.9674   -3.2431 C.2         1 HQ6       0.1733
      3 C10        11.0513  -15.9889   -2.5860 C.3         1 HQ6       0.0257
      4 N2          8.6684  -15.6805   -2.5498 N.am        1 HQ6      -0.2788
      5 C5          7.3059  -15.6568   -3.0232 C.3         1 HQ6       0.1012
      6 C6          6.7974  -17.0383   -3.5651 C.3         1 HQ6       0.1200
      7 O6          5.4726  -16.9630   -4.1103 O.3         1 HQ6      -0.3841
      8 C4          6.3902  -15.0026   -1.9386 C.3         1 HQ6       0.1118
      9 O4          5.0352  -14.9899   -2.3919 O.3         1 HQ6      -0.3866
     10 C3          6.4355  -15.5668   -0.4782 C.3         1 HQ6       0.1276
     11 O3          7.4494  -14.8687    0.2580 O.3         1 HQ6      -0.3835
     12 C2          6.6928  -17.0948   -0.2713 C.3         1 HQ6       0.0301
     13 C8          6.1774  -17.6160    1.1000 C.3         1 HQ6       0.0893
     14 O8          6.6344  -16.8361    2.1940 O.3         1 HQ6      -0.3894
     15 N1          6.0623  -17.9462   -1.3213 N.4         1 HQ6       0.2346
     16 C7          6.8487  -18.2021   -2.5523 C.3         1 HQ6      -0.0043
     17 H1         11.7562  -15.3405   -3.1131 H           1 HQ6       0.0467
     18 H2         11.4478  -17.0080   -2.5825 H           1 HQ6       0.0467
     19 H3         10.9805  -15.6454   -1.5497 H           1 HQ6       0.0467
     20 H4          8.8108  -15.4363   -1.6228 H           1 HQ6       0.1856
     21 H5          7.2863  -14.9745   -3.8799 H           1 HQ6       0.0610
     22 H6          7.4183  -17.3241   -4.4171 H           1 HQ6       0.0671
     23 H7          5.3158  -16.0079   -4.2998 H           1 HQ6       0.2101
     24 H8          6.6795  -13.9491   -1.8943 H           1 HQ6       0.0645
     25 H9          4.6511  -14.1321   -2.0803 H           1 HQ6       0.2100
     26 H10         5.4875  -15.3131    0.0017 H           1 HQ6       0.0678
     27 H11         7.1368  -13.9285    0.3278 H           1 HQ6       0.2102
     28 H12         7.7762  -17.2719   -0.2829 H           1 HQ6       0.0900
     29 H13         6.5213  -18.6365    1.2543 H           1 HQ6       0.0614
     30 H14         5.0885  -17.6213    1.1095 H           1 HQ6       0.0614
     31 H15         7.6019  -16.9036    2.1844 H           1 HQ6       0.2097
     32 H16         5.1566  -17.5424   -1.5764 H           1 HQ6       0.2019
     33 H17         5.8826  -18.8659   -0.9078 H           1 HQ6       0.2019
     34 H18         7.8835  -18.4413   -2.3083 H           1 HQ6       0.0840
     35 H19         6.4199  -19.0882   -3.0235 H           1 HQ6       0.0840
@<TRIPOS>BOND
     1     1     2   2
     2     2     3   1
     3     2     4  am
     4     4     5   1
     5     5     6   1
     6     5     8   1
     7     6     7   1
     8     6    16   1
     9     8     9   1
    10     8    10   1
    11    10    11   1
    12    10    12   1
    13    12    13   1
    14    12    15   1
    15    13    14   1
    16    15    16   1
    17     3    17   1
    18     3    18   1
    19     3    19   1
    20     4    20   1
    21     5    21   1
    22     6    22   1
    23     7    23   1
    24     8    24   1
    25     9    25   1
    26    10    26   1
    27    11    27   1
    28    12    28   1
    29    13    29   1
    30    13    30   1
    31    14    31   1
    32    15    32   1
    33    15    33   1
    34    16    34   1
    35    16    35   1
@<TRIPOS>SUBSTRUCTURE
     1  HQ6      2

