@<TRIPOS>MOLECULE
2w66_ligand_057
    35    35
SMALL
GAST_HUCK
****
This file was generated by PARSER (from files_GN.cpp)

@<TRIPOS>ATOM
      1 O9          4.8614  -10.3382    6.9018 O.2         1 HQ6      -0.3974
      2 C9          4.6778  -11.5285    6.6619 C.2         1 HQ6       0.1733
      3 C10         3.8211  -12.2685    7.5615 C.3         1 HQ6       0.0257
      4 N2          5.2369  -12.1257    5.6152 N.am        1 HQ6      -0.2788
      5 C5          5.9802  -11.4689    4.5674 C.3         1 HQ6       0.1012
      6 C6          7.5076  -11.5799    4.8720 C.3         1 HQ6       0.1200
      7 O6          7.7712  -11.4445    6.2744 O.3         1 HQ6      -0.3841
      8 C4          5.5546  -12.1155    3.2033 C.3         1 HQ6       0.1118
      9 O4          4.1273  -12.2415    3.1724 O.3         1 HQ6      -0.3866
     10 C3          5.9986  -11.3524    1.9168 C.3         1 HQ6       0.1276
     11 O3          5.5779  -12.1330    0.7954 O.3         1 HQ6      -0.3835
     12 C2          7.5280  -11.0521    1.8375 C.3         1 HQ6       0.0301
     13 C8          7.9867  -10.5161    0.4584 C.3         1 HQ6       0.0893
     14 O8          9.3792  -10.2220    0.4404 O.3         1 HQ6      -0.3894
     15 N1          7.8740  -10.0222    2.8464 N.4         1 HQ6       0.2346
     16 C7          8.3694  -10.5107    4.1419 C.3         1 HQ6      -0.0043
     17 H1          3.7784  -13.3305    7.3036 H           1 HQ6       0.0467
     18 H2          2.8133  -11.8638    7.5181 H           1 HQ6       0.0467
     19 H3          4.1874  -12.1719    8.5845 H           1 HQ6       0.0467
     20 H4          5.0862  -13.0761    5.5208 H           1 HQ6       0.1856
     21 H5          5.7121  -10.4114    4.5222 H           1 HQ6       0.0610
     22 H6          7.8620  -12.5775    4.5842 H           1 HQ6       0.0671
     23 H7          8.7060  -11.1499    6.3409 H           1 HQ6       0.2101
     24 H8          5.9613  -13.1367    3.1648 H           1 HQ6       0.0645
     25 H9          3.9224  -12.8187    2.4073 H           1 HQ6       0.2100
     26 H10         5.4536  -10.4027    1.8684 H           1 HQ6       0.0678
     27 H11         5.7075  -11.5673    0.0018 H           1 HQ6       0.2102
     28 H12         8.0809  -11.9820    2.0129 H           1 HQ6       0.0900
     29 H13         7.4363   -9.6150    0.1959 H           1 HQ6       0.0614
     30 H14         7.7996  -11.2755   -0.2957 H           1 HQ6       0.0614
     31 H15         9.7734  -10.7301    1.1805 H           1 HQ6       0.2097
     32 H16         7.0423   -9.4525    3.0158 H           1 HQ6       0.2019
     33 H17         8.5849   -9.3986    2.4586 H           1 HQ6       0.2019
     34 H18         9.3775  -10.9064    4.0040 H           1 HQ6       0.0840
     35 H19         8.4446   -9.6227    4.7736 H           1 HQ6       0.0840
@<TRIPOS>BOND
     1     1     2   2
     2     2     3   1
     3     2     4  am
     4     4     5   1
     5     5     6   1
     6     5     8   1
     7     6     7   1
     8     6    16   1
     9     8     9   1
    10     8    10   1
    11    10    11   1
    12    10    12   1
    13    12    13   1
    14    12    15   1
    15    13    14   1
    16    15    16   1
    17     3    17   1
    18     3    18   1
    19     3    19   1
    20     4    20   1
    21     5    21   1
    22     6    22   1
    23     7    23   1
    24     8    24   1
    25     9    25   1
    26    10    26   1
    27    11    27   1
    28    12    28   1
    29    13    29   1
    30    13    30   1
    31    14    31   1
    32    15    32   1
    33    15    33   1
    34    16    34   1
    35    16    35   1
@<TRIPOS>SUBSTRUCTURE
     1  HQ6      2

