@<TRIPOS>MOLECULE
2w66_ligand_009
    35    35
SMALL
GAST_HUCK
****
This file was generated by PARSER (from files_GN.cpp)

@<TRIPOS>ATOM
      1 O9          8.1410  -11.7264    6.3829 O.2         1 HQ6      -0.3974
      2 C9          7.5195  -10.6868    6.2074 C.2         1 HQ6       0.1733
      3 C10         7.6191   -9.6732    7.2299 C.3         1 HQ6       0.0257
      4 N2          6.7962  -10.4727    5.1149 N.am        1 HQ6      -0.2788
      5 C5          6.6296  -11.3684    3.9953 C.3         1 HQ6       0.1012
      6 C6          5.1144  -11.7103    3.8617 C.3         1 HQ6       0.1200
      7 O6          4.5479  -12.1490    5.1013 O.3         1 HQ6      -0.3841
      8 C4          7.2015  -10.6961    2.7009 C.3         1 HQ6       0.1118
      9 O4          8.3040   -9.8402    3.0293 O.3         1 HQ6      -0.3866
     10 C3          7.7025  -11.7111    1.6318 C.3         1 HQ6       0.1276
     11 O3          8.2470  -10.9545    0.5429 O.3         1 HQ6      -0.3835
     12 C2          6.6802  -12.7782    1.0931 C.3         1 HQ6       0.0301
     13 C8          7.1149  -14.2638    1.2877 C.3         1 HQ6       0.0893
     14 O8          7.4032  -14.6223    2.6382 O.3         1 HQ6      -0.3894
     15 N1          5.2565  -12.5368    1.4556 N.4         1 HQ6       0.2346
     16 C7          4.7768  -12.8096    2.8273 C.3         1 HQ6      -0.0043
     17 H1          7.0224   -8.7936    6.9881 H           1 HQ6       0.0467
     18 H2          8.6592   -9.3616    7.3396 H           1 HQ6       0.0467
     19 H3          7.2676  -10.0776    8.1804 H           1 HQ6       0.0467
     20 H4          6.3556   -9.6101    5.0479 H           1 HQ6       0.1856
     21 H5          7.1651  -12.3043    4.1753 H           1 HQ6       0.0610
     22 H6          4.5766  -10.8051    3.5759 H           1 HQ6       0.0671
     23 H7          5.1517  -12.8210    5.4823 H           1 HQ6       0.2101
     24 H8          6.4388  -10.0519    2.2518 H           1 HQ6       0.0645
     25 H9          8.4569   -9.2791    2.2397 H           1 HQ6       0.2100
     26 H10         8.5568  -12.2233    2.0773 H           1 HQ6       0.0678
     27 H11         7.4911  -10.7438   -0.0459 H           1 HQ6       0.2102
     28 H12         6.6582  -12.6653    0.0057 H           1 HQ6       0.0900
     29 H13         8.0027  -14.4758    0.6890 H           1 HQ6       0.0614
     30 H14         6.3233  -14.9262    0.9349 H           1 HQ6       0.0614
     31 H15         8.3509  -14.3949    2.7882 H           1 HQ6       0.2097
     32 H16         4.6953  -13.1230    0.8326 H           1 HQ6       0.2019
     33 H17         5.0387  -11.5638    1.2353 H           1 HQ6       0.2019
     34 H18         3.6872  -12.8802    2.7624 H           1 HQ6       0.0840
     35 H19         5.1250  -13.7782    3.1838 H           1 HQ6       0.0840
@<TRIPOS>BOND
     1     1     2   2
     2     2     3   1
     3     2     4  am
     4     4     5   1
     5     5     6   1
     6     5     8   1
     7     6     7   1
     8     6    16   1
     9     8     9   1
    10     8    10   1
    11    10    11   1
    12    10    12   1
    13    12    13   1
    14    12    15   1
    15    13    14   1
    16    15    16   1
    17     3    17   1
    18     3    18   1
    19     3    19   1
    20     4    20   1
    21     5    21   1
    22     6    22   1
    23     7    23   1
    24     8    24   1
    25     9    25   1
    26    10    26   1
    27    11    27   1
    28    12    28   1
    29    13    29   1
    30    13    30   1
    31    14    31   1
    32    15    32   1
    33    15    33   1
    34    16    34   1
    35    16    35   1
@<TRIPOS>SUBSTRUCTURE
     1  HQ6      2

