@<TRIPOS>MOLECULE
2w66_ligand_027
    35    35
SMALL
GAST_HUCK
****
This file was generated by PARSER (from files_GN.cpp)

@<TRIPOS>ATOM
      1 O9          3.9186  -20.0658    0.5951 O.2         1 HQ6      -0.3974
      2 C9          2.9428  -19.3689    0.3068 C.2         1 HQ6       0.1733
      3 C10         1.6294  -19.7303    0.7954 C.3         1 HQ6       0.0257
      4 N2          3.0986  -18.2384   -0.3674 N.am        1 HQ6      -0.2788
      5 C5          4.2981  -17.6993   -0.9451 C.3         1 HQ6       0.1012
      6 C6          5.5185  -17.7503    0.0304 C.3         1 HQ6       0.1200
      7 O6          5.1042  -17.6668    1.3972 O.3         1 HQ6      -0.3841
      8 C4          4.6252  -18.3660   -2.3276 C.3         1 HQ6       0.1118
      9 O4          3.4077  -18.6705   -3.0350 O.3         1 HQ6      -0.3866
     10 C3          5.5319  -17.5268   -3.2845 C.3         1 HQ6       0.1276
     11 O3          5.7077  -18.2732   -4.4897 O.3         1 HQ6      -0.3835
     12 C2          6.9234  -17.0824   -2.7157 C.3         1 HQ6       0.0301
     13 C8          7.8710  -16.4443   -3.7930 C.3         1 HQ6       0.0893
     14 O8          7.2390  -16.1419   -5.0428 O.3         1 HQ6      -0.3894
     15 N1          6.7216  -16.1166   -1.5921 N.4         1 HQ6       0.2346
     16 C7          6.6007  -16.6497   -0.2159 C.3         1 HQ6      -0.0043
     17 H1          0.8456  -19.0850    0.3675 H           1 HQ6       0.0467
     18 H2          1.6188  -19.6269    1.8876 H           1 HQ6       0.0467
     19 H3          1.4273  -20.7699    0.5185 H           1 HQ6       0.0467
     20 H4          2.2962  -17.7043   -0.5133 H           1 HQ6       0.1856
     21 H5          4.0604  -16.6505   -1.1339 H           1 HQ6       0.0610
     22 H6          6.0082  -18.7300   -0.0590 H           1 HQ6       0.0671
     23 H7          4.3131  -17.0904    1.4050 H           1 HQ6       0.2101
     24 H8          5.1099  -19.3369   -2.1520 H           1 HQ6       0.0645
     25 H9          3.1785  -17.8565   -3.5331 H           1 HQ6       0.2100
     26 H10         4.9729  -16.6259   -3.5535 H           1 HQ6       0.0678
     27 H11         6.4105  -18.9355   -4.2812 H           1 HQ6       0.2102
     28 H12         7.4322  -17.9785   -2.3409 H           1 HQ6       0.0900
     29 H13         8.6983  -17.1399   -4.0130 H           1 HQ6       0.0614
     30 H14         8.3228  -15.5120   -3.4183 H           1 HQ6       0.0614
     31 H15         6.5141  -15.5249   -4.8234 H           1 HQ6       0.2097
     32 H16         5.8814  -15.5627   -1.7924 H           1 HQ6       0.2019
     33 H17         7.5210  -15.4825   -1.5692 H           1 HQ6       0.2019
     34 H18         7.5806  -17.0415    0.0917 H           1 HQ6       0.0840
     35 H19         6.3849  -15.7840    0.4234 H           1 HQ6       0.0840
@<TRIPOS>BOND
     1     1     2   2
     2     2     3   1
     3     2     4  am
     4     4     5   1
     5     5     6   1
     6     5     8   1
     7     6     7   1
     8     6    16   1
     9     8     9   1
    10     8    10   1
    11    10    11   1
    12    10    12   1
    13    12    13   1
    14    12    15   1
    15    13    14   1
    16    15    16   1
    17     3    17   1
    18     3    18   1
    19     3    19   1
    20     4    20   1
    21     5    21   1
    22     6    22   1
    23     7    23   1
    24     8    24   1
    25     9    25   1
    26    10    26   1
    27    11    27   1
    28    12    28   1
    29    13    29   1
    30    13    30   1
    31    14    31   1
    32    15    32   1
    33    15    33   1
    34    16    34   1
    35    16    35   1
@<TRIPOS>SUBSTRUCTURE
     1  HQ6      2

