@<TRIPOS>MOLECULE
2w66_ligand_056
    35    35
SMALL
GAST_HUCK
****
This file was generated by PARSER (from files_GN.cpp)

@<TRIPOS>ATOM
      1 O9          4.1329  -13.8519    0.6640 O.2         1 HQ6      -0.3974
      2 C9          4.8916  -14.7863    0.8953 C.2         1 HQ6       0.1733
      3 C10         4.6166  -16.0517    0.2589 C.3         1 HQ6       0.0257
      4 N2          5.9423  -14.6429    1.6930 N.am        1 HQ6      -0.2788
      5 C5          6.3759  -13.4221    2.3288 C.3         1 HQ6       0.1012
      6 C6          7.1130  -13.7976    3.6523 C.3         1 HQ6       0.1200
      7 O6          6.3419  -14.7306    4.4118 O.3         1 HQ6      -0.3841
      8 C4          7.2878  -12.5916    1.3629 C.3         1 HQ6       0.1118
      9 O4          6.9450  -12.8249   -0.0100 O.3         1 HQ6      -0.3866
     10 C3          7.3017  -11.0510    1.6038 C.3         1 HQ6       0.1276
     11 O3          8.1915  -10.4864    0.6358 O.3         1 HQ6      -0.3835
     12 C2          7.6956  -10.5521    3.0435 C.3         1 HQ6       0.0301
     13 C8          6.5888   -9.6873    3.7232 C.3         1 HQ6       0.0893
     14 O8          5.2998  -10.3026    3.7714 O.3         1 HQ6      -0.3894
     15 N1          8.3076  -11.5647    3.9468 N.4         1 HQ6       0.2346
     16 C7          7.4530  -12.5987    4.5715 C.3         1 HQ6      -0.0043
     17 H1          5.3325  -16.8197    0.5506 H           1 HQ6       0.0467
     18 H2          4.6655  -15.9295   -0.8231 H           1 HQ6       0.0467
     19 H3          3.6182  -16.3978    0.5233 H           1 HQ6       0.0467
     20 H4          6.4695  -15.4385    1.8656 H           1 HQ6       0.1856
     21 H5          5.4968  -12.8314    2.5952 H           1 HQ6       0.0610
     22 H6          8.0438  -14.3110    3.4015 H           1 HQ6       0.0671
     23 H7          5.5297  -14.2513    4.6783 H           1 HQ6       0.2101
     24 H8          8.3128  -12.9579    1.4582 H           1 HQ6       0.0645
     25 H9          6.0383  -12.4761   -0.1426 H           1 HQ6       0.2100
     26 H10         6.3087  -10.6723    1.3480 H           1 HQ6       0.0678
     27 H11         7.6446  -10.3592   -0.1717 H           1 HQ6       0.2102
     28 H12         8.5200   -9.8475    2.9105 H           1 HQ6       0.0900
     29 H13         6.4961   -8.7350    3.1957 H           1 HQ6       0.0614
     30 H14         6.8771   -9.4692    4.7526 H           1 HQ6       0.0614
     31 H15         4.9810  -10.3581    2.8454 H           1 HQ6       0.2097
     32 H16         8.7536  -11.0486    4.7150 H           1 HQ6       0.2019
     33 H17         9.0490  -12.0434    3.4357 H           1 HQ6       0.2019
     34 H18         8.0219  -12.9765    5.4220 H           1 HQ6       0.0840
     35 H19         6.5446  -12.1590    4.9793 H           1 HQ6       0.0840
@<TRIPOS>BOND
     1     1     2   2
     2     2     3   1
     3     2     4  am
     4     4     5   1
     5     5     6   1
     6     5     8   1
     7     6     7   1
     8     6    16   1
     9     8     9   1
    10     8    10   1
    11    10    11   1
    12    10    12   1
    13    12    13   1
    14    12    15   1
    15    13    14   1
    16    15    16   1
    17     3    17   1
    18     3    18   1
    19     3    19   1
    20     4    20   1
    21     5    21   1
    22     6    22   1
    23     7    23   1
    24     8    24   1
    25     9    25   1
    26    10    26   1
    27    11    27   1
    28    12    28   1
    29    13    29   1
    30    13    30   1
    31    14    31   1
    32    15    32   1
    33    15    33   1
    34    16    34   1
    35    16    35   1
@<TRIPOS>SUBSTRUCTURE
     1  HQ6      2

