@<TRIPOS>MOLECULE
2w66_ligand_012
    35    35
SMALL
GAST_HUCK
****
This file was generated by PARSER (from files_GN.cpp)

@<TRIPOS>ATOM
      1 O9          6.9441   -9.8084    5.1103 O.2         1 HQ6      -0.3974
      2 C9          6.3291  -10.8512    5.0116 C.2         1 HQ6       0.1733
      3 C10         6.2677  -11.7054    6.1751 C.3         1 HQ6       0.0257
      4 N2          5.7065  -11.2144    3.9073 N.am        1 HQ6      -0.2788
      5 C5          5.7000  -10.4894    2.6573 C.3         1 HQ6       0.1012
      6 C6          7.0769  -10.5452    1.9354 C.3         1 HQ6       0.1200
      7 O6          7.1085   -9.6663    0.8071 O.3         1 HQ6      -0.3841
      8 C4          4.4715  -10.9234    1.7949 C.3         1 HQ6       0.1118
      9 O4          4.4653  -10.2087    0.5510 O.3         1 HQ6      -0.3866
     10 C3          4.2214  -12.4487    1.5197 C.3         1 HQ6       0.1276
     11 O3          3.3888  -12.9777    2.5533 O.3         1 HQ6      -0.3835
     12 C2          5.4619  -13.3851    1.3749 C.3         1 HQ6       0.0301
     13 C8          5.1141  -14.7631    0.7309 C.3         1 HQ6       0.0893
     14 O8          4.1498  -14.7442   -0.3239 O.3         1 HQ6      -0.3894
     15 N1          6.6016  -12.7382    0.6623 N.4         1 HQ6       0.2346
     16 C7          7.5412  -11.9623    1.5166 C.3         1 HQ6      -0.0043
     17 H1          5.7773  -11.1770    6.9982 H           1 HQ6       0.0467
     18 H2          7.2808  -11.9776    6.4844 H           1 HQ6       0.0467
     19 H3          5.7117  -12.6248    5.9741 H           1 HQ6       0.0467
     20 H4          5.1907  -12.0339    3.9380 H           1 HQ6       0.1856
     21 H5          5.5248   -9.4385    2.9170 H           1 HQ6       0.0610
     22 H6          7.8320  -10.1440    2.6144 H           1 HQ6       0.0671
     23 H7          7.9692   -9.8334    0.3672 H           1 HQ6       0.2101
     24 H8          3.5758  -10.5507    2.3042 H           1 HQ6       0.0645
     25 H9          5.1796  -10.6112    0.0080 H           1 HQ6       0.2100
     26 H10         3.6188  -12.4928    0.6068 H           1 HQ6       0.0678
     27 H11         3.0531  -13.8253    2.2050 H           1 HQ6       0.2102
     28 H12         5.8035  -13.6293    2.3778 H           1 HQ6       0.0900
     29 H13         4.7024  -15.4244    1.5048 H           1 HQ6       0.0614
     30 H14         6.0282  -15.2496    0.3563 H           1 HQ6       0.0614
     31 H15         4.3972  -14.0004   -0.9175 H           1 HQ6       0.2097
     32 H16         6.2606  -12.1490   -0.0959 H           1 HQ6       0.2019
     33 H17         7.1680  -13.4742    0.2374 H           1 HQ6       0.2019
     34 H18         7.8015  -12.5314    2.4179 H           1 HQ6       0.0840
     35 H19         8.4713  -11.8401    0.9616 H           1 HQ6       0.0840
@<TRIPOS>BOND
     1     1     2   2
     2     2     3   1
     3     2     4  am
     4     4     5   1
     5     5     6   1
     6     5     8   1
     7     6     7   1
     8     6    16   1
     9     8     9   1
    10     8    10   1
    11    10    11   1
    12    10    12   1
    13    12    13   1
    14    12    15   1
    15    13    14   1
    16    15    16   1
    17     3    17   1
    18     3    18   1
    19     3    19   1
    20     4    20   1
    21     5    21   1
    22     6    22   1
    23     7    23   1
    24     8    24   1
    25     9    25   1
    26    10    26   1
    27    11    27   1
    28    12    28   1
    29    13    29   1
    30    13    30   1
    31    14    31   1
    32    15    32   1
    33    15    33   1
    34    16    34   1
    35    16    35   1
@<TRIPOS>SUBSTRUCTURE
     1  HQ6      2

