@<TRIPOS>MOLECULE
2w66_ligand_052
    35    35
SMALL
GAST_HUCK
****
This file was generated by PARSER (from files_GN.cpp)

@<TRIPOS>ATOM
      1 O9          5.3378  -17.0180   -1.5363 O.2         1 HQ6      -0.3974
      2 C9          4.4122  -17.0183   -0.7316 C.2         1 HQ6       0.1733
      3 C10         3.6281  -18.2231   -0.6026 C.3         1 HQ6       0.0257
      4 N2          4.1492  -15.9600    0.0298 N.am        1 HQ6      -0.2788
      5 C5          4.8480  -14.6969    0.0640 C.3         1 HQ6       0.1012
      6 C6          3.8014  -13.5616    0.3675 C.3         1 HQ6       0.1200
      7 O6          3.5307  -12.8354   -0.8336 O.3         1 HQ6      -0.3841
      8 C4          6.0855  -14.7908    1.0205 C.3         1 HQ6       0.1118
      9 O4          6.8114  -15.9927    0.7403 O.3         1 HQ6      -0.3866
     10 C3          7.0826  -13.5885    0.9054 C.3         1 HQ6       0.1276
     11 O3          8.3499  -13.9947    1.4298 O.3         1 HQ6      -0.3835
     12 C2          6.6514  -12.2714    1.6184 C.3         1 HQ6       0.0301
     13 C8          7.7048  -11.1416    1.4383 C.3         1 HQ6       0.0893
     14 O8          7.2862   -9.9440    2.0971 O.3         1 HQ6      -0.3894
     15 N1          5.3593  -11.7512    1.1188 N.4         1 HQ6       0.2346
     16 C7          4.1531  -12.5282    1.4697 C.3         1 HQ6      -0.0043
     17 H1          2.7914  -18.0946    0.0834 H           1 HQ6       0.0467
     18 H2          4.2587  -19.0332   -0.2286 H           1 HQ6       0.0467
     19 H3          3.2275  -18.5126   -1.5776 H           1 HQ6       0.0467
     20 H4          3.4137  -16.0598    0.6480 H           1 HQ6       0.1856
     21 H5          5.2496  -14.5148   -0.9372 H           1 HQ6       0.0610
     22 H6          2.8464  -13.9961    0.6795 H           1 HQ6       0.0671
     23 H7          2.9535  -12.0824   -0.5817 H           1 HQ6       0.2101
     24 H8          5.7434  -14.8837    2.0560 H           1 HQ6       0.0645
     25 H9          7.1348  -15.8961   -0.1792 H           1 HQ6       0.2100
     26 H10         7.2364  -13.3770   -0.1541 H           1 HQ6       0.0678
     27 H11         8.2342  -14.0840    2.3996 H           1 HQ6       0.2102
     28 H12         6.5715  -12.4643    2.6949 H           1 HQ6       0.0900
     29 H13         7.8512  -10.9227    0.3785 H           1 HQ6       0.0614
     30 H14         8.6621  -11.4345    1.8721 H           1 HQ6       0.0614
     31 H15         7.9816   -9.2829    1.8947 H           1 HQ6       0.2097
     32 H16         5.4134  -11.6676    0.0977 H           1 HQ6       0.2019
     33 H17         5.2275  -10.8136    1.5083 H           1 HQ6       0.2019
     34 H18         4.2444  -13.0165    2.4448 H           1 HQ6       0.0840
     35 H19         3.3252  -11.8152    1.5594 H           1 HQ6       0.0840
@<TRIPOS>BOND
     1     1     2   2
     2     2     3   1
     3     2     4  am
     4     4     5   1
     5     5     6   1
     6     5     8   1
     7     6     7   1
     8     6    16   1
     9     8     9   1
    10     8    10   1
    11    10    11   1
    12    10    12   1
    13    12    13   1
    14    12    15   1
    15    13    14   1
    16    15    16   1
    17     3    17   1
    18     3    18   1
    19     3    19   1
    20     4    20   1
    21     5    21   1
    22     6    22   1
    23     7    23   1
    24     8    24   1
    25     9    25   1
    26    10    26   1
    27    11    27   1
    28    12    28   1
    29    13    29   1
    30    13    30   1
    31    14    31   1
    32    15    32   1
    33    15    33   1
    34    16    34   1
    35    16    35   1
@<TRIPOS>SUBSTRUCTURE
     1  HQ6      2

