@<TRIPOS>MOLECULE
2w66_ligand_006
    35    35
SMALL
GAST_HUCK
****
This file was generated by PARSER (from files_GN.cpp)

@<TRIPOS>ATOM
      1 O9          7.2544  -10.9571    4.6547 O.2         1 HQ6      -0.3974
      2 C9          6.2989  -11.3168    5.3503 C.2         1 HQ6       0.1733
      3 C10         6.1956  -10.8042    6.6867 C.3         1 HQ6       0.0257
      4 N2          5.4594  -12.2649    4.9372 N.am        1 HQ6      -0.2788
      5 C5          5.3932  -12.9108    3.6683 C.3         1 HQ6       0.1012
      6 C6          4.6419  -12.0417    2.6193 C.3         1 HQ6       0.1200
      7 O6          3.4366  -11.5200    3.1702 O.3         1 HQ6      -0.3841
      8 C4          6.7752  -13.4544    3.1714 C.3         1 HQ6       0.1118
      9 O4          7.5382  -13.8414    4.3188 O.3         1 HQ6      -0.3866
     10 C3          6.6359  -14.6950    2.2269 C.3         1 HQ6       0.1276
     11 O3          7.8732  -15.4365    2.1320 O.3         1 HQ6      -0.3835
     12 C2          6.1600  -14.4212    0.7489 C.3         1 HQ6       0.0301
     13 C8          5.4606  -15.6699    0.0884 C.3         1 HQ6       0.0893
     14 O8          4.0568  -15.4896   -0.1279 O.3         1 HQ6      -0.3894
     15 N1          5.4289  -13.1455    0.5095 N.4         1 HQ6       0.2346
     16 C7          4.2498  -12.8213    1.3427 C.3         1 HQ6      -0.0043
     17 H1          5.2289  -11.0655    7.1454 H           1 HQ6       0.0467
     18 H2          6.2739   -9.7073    6.6829 H           1 HQ6       0.0467
     19 H3          6.9985  -11.2167    7.3134 H           1 HQ6       0.0467
     20 H4          4.7913  -12.5387    5.5944 H           1 HQ6       0.1856
     21 H5          4.7557  -13.7896    3.8683 H           1 HQ6       0.0610
     22 H6          5.2614  -11.1952    2.3392 H           1 HQ6       0.0671
     23 H7          3.0512  -12.2498    3.7101 H           1 HQ6       0.2101
     24 H8          7.3261  -12.6700    2.6477 H           1 HQ6       0.0645
     25 H9          8.4732  -13.7465    4.0509 H           1 HQ6       0.2100
     26 H10         5.9333  -15.3901    2.7109 H           1 HQ6       0.0678
     27 H11         8.5706  -14.8464    2.5214 H           1 HQ6       0.2102
     28 H12         7.0807  -14.2486    0.1724 H           1 HQ6       0.0900
     29 H13         5.6038  -16.5794    0.6935 H           1 HQ6       0.0614
     30 H14         5.9150  -15.8574   -0.8916 H           1 HQ6       0.0614
     31 H15         3.6494  -15.8841    0.6866 H           1 HQ6       0.2097
     32 H16         5.1107  -13.1561   -0.4605 H           1 HQ6       0.2019
     33 H17         6.0920  -12.3700    0.5985 H           1 HQ6       0.2019
     34 H18         3.6005  -12.1866    0.7269 H           1 HQ6       0.0840
     35 H19         3.6750  -13.7289    1.5998 H           1 HQ6       0.0840
@<TRIPOS>BOND
     1     1     2   2
     2     2     3   1
     3     2     4  am
     4     4     5   1
     5     5     6   1
     6     5     8   1
     7     6     7   1
     8     6    16   1
     9     8     9   1
    10     8    10   1
    11    10    11   1
    12    10    12   1
    13    12    13   1
    14    12    15   1
    15    13    14   1
    16    15    16   1
    17     3    17   1
    18     3    18   1
    19     3    19   1
    20     4    20   1
    21     5    21   1
    22     6    22   1
    23     7    23   1
    24     8    24   1
    25     9    25   1
    26    10    26   1
    27    11    27   1
    28    12    28   1
    29    13    29   1
    30    13    30   1
    31    14    31   1
    32    15    32   1
    33    15    33   1
    34    16    34   1
    35    16    35   1
@<TRIPOS>SUBSTRUCTURE
     1  HQ6      2

