@<TRIPOS>MOLECULE
2w66_ligand_064
    35    35
SMALL
GAST_HUCK
****
This file was generated by PARSER (from files_GN.cpp)

@<TRIPOS>ATOM
      1 O9          8.8817  -18.8161    2.8475 O.2         1 HQ6      -0.3974
      2 C9          9.1689  -17.9682    3.6839 C.2         1 HQ6       0.1733
      3 C10        10.2221  -18.2732    4.6244 C.3         1 HQ6       0.0257
      4 N2          8.5448  -16.7978    3.7377 N.am        1 HQ6      -0.2788
      5 C5          7.4561  -16.3437    2.9097 C.3         1 HQ6       0.1012
      6 C6          6.1020  -17.0019    3.3673 C.3         1 HQ6       0.1200
      7 O6          5.7312  -18.0255    2.4394 O.3         1 HQ6      -0.3841
      8 C4          7.5025  -14.7883    2.7214 C.3         1 HQ6       0.1118
      9 O4          8.8578  -14.4355    2.4209 O.3         1 HQ6      -0.3866
     10 C3          6.5784  -14.2363    1.5864 C.3         1 HQ6       0.1276
     11 O3          7.0283  -12.9323    1.2054 O.3         1 HQ6      -0.3835
     12 C2          5.0682  -14.1191    1.9657 C.3         1 HQ6       0.0301
     13 C8          4.2122  -13.5189    0.8149 C.3         1 HQ6       0.0893
     14 O8          4.5746  -12.1688    0.5376 O.3         1 HQ6      -0.3894
     15 N1          4.4478  -15.4170    2.3230 N.4         1 HQ6       0.2346
     16 C7          4.8876  -16.0641    3.5745 C.3         1 HQ6      -0.0043
     17 H1         10.3796  -17.4594    5.3357 H           1 HQ6       0.0467
     18 H2         11.1577  -18.4451    4.0891 H           1 HQ6       0.0467
     19 H3          9.9650  -19.1731    5.1867 H           1 HQ6       0.0467
     20 H4          8.8443  -16.1825    4.4244 H           1 HQ6       0.1856
     21 H5          7.6924  -16.7482    1.9220 H           1 HQ6       0.0610
     22 H6          6.2491  -17.5169    4.3224 H           1 HQ6       0.0671
     23 H7          5.8674  -17.6304    1.5521 H           1 HQ6       0.2101
     24 H8          7.2544  -14.2875    3.6608 H           1 HQ6       0.0645
     25 H9          9.0776  -14.9138    1.5937 H           1 HQ6       0.2100
     26 H10         6.6780  -14.8755    0.7049 H           1 HQ6       0.0678
     27 H11         7.9097  -13.0670    0.8011 H           1 HQ6       0.2102
     28 H12         4.9746  -13.4396    2.8185 H           1 HQ6       0.0900
     29 H13         3.1506  -13.5450    1.0726 H           1 HQ6       0.0614
     30 H14         4.3489  -14.1073   -0.0949 H           1 HQ6       0.0614
     31 H15         4.0071  -11.9035   -0.2153 H           1 HQ6       0.2097
     32 H16         4.5877  -16.0702    1.5500 H           1 HQ6       0.2019
     33 H17         3.4430  -15.2532    2.4125 H           1 HQ6       0.2019
     34 H18         5.0992  -15.3299    4.3555 H           1 HQ6       0.0840
     35 H19         4.0487  -16.6684    3.9288 H           1 HQ6       0.0840
@<TRIPOS>BOND
     1     1     2   2
     2     2     3   1
     3     2     4  am
     4     4     5   1
     5     5     6   1
     6     5     8   1
     7     6     7   1
     8     6    16   1
     9     8     9   1
    10     8    10   1
    11    10    11   1
    12    10    12   1
    13    12    13   1
    14    12    15   1
    15    13    14   1
    16    15    16   1
    17     3    17   1
    18     3    18   1
    19     3    19   1
    20     4    20   1
    21     5    21   1
    22     6    22   1
    23     7    23   1
    24     8    24   1
    25     9    25   1
    26    10    26   1
    27    11    27   1
    28    12    28   1
    29    13    29   1
    30    13    30   1
    31    14    31   1
    32    15    32   1
    33    15    33   1
    34    16    34   1
    35    16    35   1
@<TRIPOS>SUBSTRUCTURE
     1  HQ6      2

