@<TRIPOS>MOLECULE
2w66_ligand_053
    35    35
SMALL
GAST_HUCK
****
This file was generated by PARSER (from files_GN.cpp)

@<TRIPOS>ATOM
      1 O9          4.7641  -10.0562    1.5981 O.2         1 HQ6      -0.3974
      2 C9          5.5719  -10.7268    0.9447 C.2         1 HQ6       0.1733
      3 C10         6.5602  -10.0512    0.1420 C.3         1 HQ6       0.0257
      4 N2          5.6684  -12.0332    1.0909 N.am        1 HQ6      -0.2788
      5 C5          4.9245  -12.8560    1.9995 C.3         1 HQ6       0.1012
      6 C6          5.5311  -14.3013    1.9889 C.3         1 HQ6       0.1200
      7 O6          4.7537  -15.2025    2.7833 O.3         1 HQ6      -0.3841
      8 C4          4.8101  -12.1704    3.4215 C.3         1 HQ6       0.1118
      9 O4          4.2534  -13.0728    4.3835 O.3         1 HQ6      -0.3866
     10 C3          6.1097  -11.5265    4.0215 C.3         1 HQ6       0.1276
     11 O3          6.2372  -10.1735    3.5800 O.3         1 HQ6      -0.3835
     12 C2          7.4540  -12.2673    3.7204 C.3         1 HQ6       0.0301
     13 C8          8.5830  -11.9211    4.7331 C.3         1 HQ6       0.0893
     14 O8          8.7008  -12.9151    5.7442 O.3         1 HQ6      -0.3894
     15 N1          7.3161  -13.7513    3.7038 N.4         1 HQ6       0.2346
     16 C7          7.0156  -14.3936    2.4055 C.3         1 HQ6      -0.0043
     17 H1          7.2255   -9.4694    0.7842 H           1 HQ6       0.0467
     18 H2          6.0724   -9.3813   -0.5696 H           1 HQ6       0.0467
     19 H3          7.1837  -10.7658   -0.4088 H           1 HQ6       0.0467
     20 H4          6.3648  -12.4730    0.6026 H           1 HQ6       0.1856
     21 H5          3.8993  -12.9577    1.6084 H           1 HQ6       0.0610
     22 H6          5.4600  -14.6697    0.9629 H           1 HQ6       0.0671
     23 H7          4.0810  -15.5813    2.1850 H           1 HQ6       0.2101
     24 H8          4.0675  -11.3721    3.3237 H           1 HQ6       0.0645
     25 H9          4.0203  -12.5055    5.1473 H           1 HQ6       0.2100
     26 H10         5.9858  -11.4786    5.1059 H           1 HQ6       0.0678
     27 H11         5.3456   -9.7537    3.7250 H           1 HQ6       0.2102
     28 H12         7.8186  -11.9219    2.7450 H           1 HQ6       0.0900
     29 H13         8.3857  -10.9582    5.2083 H           1 HQ6       0.0614
     30 H14         9.5342  -11.8476    4.2009 H           1 HQ6       0.0614
     31 H15         9.5696  -12.7277    6.1832 H           1 HQ6       0.2097
     32 H16         6.6028  -14.0237    4.3792 H           1 HQ6       0.2019
     33 H17         8.2082  -14.1503    4.0068 H           1 HQ6       0.2019
     34 H18         7.6539  -13.9854    1.6259 H           1 HQ6       0.0840
     35 H19         7.2767  -15.4461    2.5032 H           1 HQ6       0.0840
@<TRIPOS>BOND
     1     1     2   2
     2     2     3   1
     3     2     4  am
     4     4     5   1
     5     5     6   1
     6     5     8   1
     7     6     7   1
     8     6    16   1
     9     8     9   1
    10     8    10   1
    11    10    11   1
    12    10    12   1
    13    12    13   1
    14    12    15   1
    15    13    14   1
    16    15    16   1
    17     3    17   1
    18     3    18   1
    19     3    19   1
    20     4    20   1
    21     5    21   1
    22     6    22   1
    23     7    23   1
    24     8    24   1
    25     9    25   1
    26    10    26   1
    27    11    27   1
    28    12    28   1
    29    13    29   1
    30    13    30   1
    31    14    31   1
    32    15    32   1
    33    15    33   1
    34    16    34   1
    35    16    35   1
@<TRIPOS>SUBSTRUCTURE
     1  HQ6      2

