@<TRIPOS>MOLECULE
2w66_ligand_001
    35    35
SMALL
GAST_HUCK
****
This file was generated by PARSER (from files_GN.cpp)

@<TRIPOS>ATOM
      1 O9          5.9275  -16.0218    0.9823 O.2         1 HQ6      -0.3974
      2 C9          5.6573  -15.2949    0.0355 C.2         1 HQ6       0.1733
      3 C10         5.4677  -15.9208   -1.2560 C.3         1 HQ6       0.0257
      4 N2          5.5871  -13.9730    0.1308 N.am        1 HQ6      -0.2788
      5 C5          5.7373  -13.0977    1.2662 C.3         1 HQ6       0.1012
      6 C6          4.3286  -12.6075    1.7378 C.3         1 HQ6       0.1200
      7 O6          3.3640  -12.6094    0.6785 O.3         1 HQ6      -0.3841
      8 C4          6.6173  -13.6430    2.4450 C.3         1 HQ6       0.1118
      9 O4          7.7734  -14.2551    1.8646 O.3         1 HQ6      -0.3866
     10 C3          7.0938  -12.6094    3.5132 C.3         1 HQ6       0.1276
     11 O3          7.7276  -13.3544    4.5579 O.3         1 HQ6      -0.3835
     12 C2          6.0207  -11.6806    4.1683 C.3         1 HQ6       0.0301
     13 C8          6.6430  -10.8448    5.3318 C.3         1 HQ6       0.0893
     14 O8          5.7678   -9.8327    5.8241 O.3         1 HQ6      -0.3894
     15 N1          5.4824  -10.7447    3.1479 N.4         1 HQ6       0.2346
     16 C7          4.3086  -11.1782    2.3535 C.3         1 HQ6      -0.0043
     17 H1          5.1202  -15.2014   -2.0048 H           1 HQ6       0.0467
     18 H2          4.7270  -16.7218   -1.1802 H           1 HQ6       0.0467
     19 H3          6.4140  -16.3500   -1.5987 H           1 HQ6       0.0467
     20 H4          5.3073  -13.5188   -0.6822 H           1 HQ6       0.1856
     21 H5          6.2627  -12.2337    0.8530 H           1 HQ6       0.0610
     22 H6          3.9484  -13.3104    2.4839 H           1 HQ6       0.0671
     23 H7          3.8293  -12.2403   -0.1033 H           1 HQ6       0.2101
     24 H8          6.0612  -14.4256    2.9655 H           1 HQ6       0.0645
     25 H9          8.3931  -14.4597    2.5996 H           1 HQ6       0.2100
     26 H10         7.8565  -11.9720    3.0563 H           1 HQ6       0.0678
     27 H11         8.6158  -13.5700    4.2207 H           1 HQ6       0.2102
     28 H12         5.2101  -12.2812    4.5971 H           1 HQ6       0.0900
     29 H13         7.5627  -10.3551    4.9994 H           1 HQ6       0.0614
     30 H14         6.8830  -11.4988    6.1767 H           1 HQ6       0.0614
     31 H15         6.3404   -9.2481    6.3716 H           1 HQ6       0.2097
     32 H16         6.2375  -10.5093    2.5022 H           1 HQ6       0.2019
     33 H17         5.1918   -9.8835    3.6176 H           1 HQ6       0.2019
     34 H18         3.4146  -11.0875    2.9762 H           1 HQ6       0.0840
     35 H19         4.2149  -10.4431    1.5475 H           1 HQ6       0.0840
@<TRIPOS>BOND
     1     1     2   2
     2     2     3   1
     3     2     4  am
     4     4     5   1
     5     5     6   1
     6     5     8   1
     7     6     7   1
     8     6    16   1
     9     8     9   1
    10     8    10   1
    11    10    11   1
    12    10    12   1
    13    12    13   1
    14    12    15   1
    15    13    14   1
    16    15    16   1
    17     3    17   1
    18     3    18   1
    19     3    19   1
    20     4    20   1
    21     5    21   1
    22     6    22   1
    23     7    23   1
    24     8    24   1
    25     9    25   1
    26    10    26   1
    27    11    27   1
    28    12    28   1
    29    13    29   1
    30    13    30   1
    31    14    31   1
    32    15    32   1
    33    15    33   1
    34    16    34   1
    35    16    35   1
@<TRIPOS>SUBSTRUCTURE
     1  HQ6      2

