@<TRIPOS>MOLECULE
2wbg_ligand_018
    50    51
SMALL
GAST_HUCK
****
This file was generated by PARSER (from files_GN.cpp)

@<TRIPOS>ATOM
      1 O4         -0.8661    6.5629   11.5806 O.3         1 LGS      -0.3867
      2 C4          0.5240    6.7505   11.8499 C.3         1 LGS       0.1103
      3 C5          1.3924    6.0457   10.7694 C.3         1 LGS       0.1113
      4 C6          1.3116    6.6353    9.3459 C.3         1 LGS       0.1120
      5 O6          2.6554    6.6933    8.8565 O.3         1 LGS      -0.2547
      6 C3          0.8816    6.2518   13.2931 C.3         1 LGS       0.1137
      7 O3          0.8243    7.3349   14.2298 O.3         1 LGS      -0.3864
      8 C2          2.2724    5.5407   13.4126 C.3         1 LGS       0.1318
      9 O2          2.1372    4.1356   13.1782 O.3         1 LGS      -0.3843
     10 C1          3.3203    6.0730   12.3936 C.3         1 LGS       0.1770
     11 O1          3.8528    7.3169   12.8438 O.3         1 LGS      -0.3666
     12 N1          2.7665    6.2324   11.0719 N.pl3       1 LGS      -0.2126
     13 C7          3.4295    6.6277    9.9722 C.2         1 LGS       0.2439
     14 N2          4.7500    6.9016    9.9644 N.2         1 LGS      -0.3607
     15 C8          5.5200    7.2750    8.8315 C.3         1 LGS      -0.0300
     16 C9          7.0235    7.3827    9.2057 C.3         1 LGS      -0.0515
     17 C10         8.0233    7.2399    8.0212 C.3         1 LGS      -0.0530
     18 C11         7.9132    5.9559    7.1450 C.3         1 LGS      -0.0531
     19 C12         7.9342    4.5940    7.9017 C.3         1 LGS      -0.0531
     20 C13         7.3466    3.4085    7.0852 C.3         1 LGS      -0.0533
     21 C14         8.1390    3.0166    5.7997 C.3         1 LGS      -0.0559
     22 C15         7.2298    2.7446    4.5804 C.3         1 LGS      -0.0653
     23 H1         -1.0203    6.9882   10.7111 H           1 LGS       0.2100
     24 H2          0.7223    7.8258   11.7861 H           1 LGS       0.0645
     25 H3          1.1590    4.9762   10.7415 H           1 LGS       0.0626
     26 H4          0.8997    7.6483    9.3564 H           1 LGS       0.0660
     27 H5          0.6997    6.0135    8.6861 H           1 LGS       0.0660
     28 H6          0.1143    5.5420   13.6197 H           1 LGS       0.0647
     29 H7          1.0667    8.1466   13.7416 H           1 LGS       0.2100
     30 H8          2.6592    5.6489   14.4281 H           1 LGS       0.0669
     31 H9          1.5769    3.7780   13.9049 H           1 LGS       0.2101
     32 H10         4.1522    5.3654   12.3523 H           1 LGS       0.0908
     33 H11         3.2108    8.0088   12.5689 H           1 LGS       0.2124
     34 H12         5.1626    8.2287    8.4378 H           1 LGS       0.0282
     35 H13         5.3618    6.5111    8.0744 H           1 LGS       0.0282
     36 H14         7.2741    6.6299    9.9581 H           1 LGS       0.0266
     37 H15         7.1851    8.3557    9.6802 H           1 LGS       0.0266
     38 H16         9.0397    7.2952    8.4245 H           1 LGS       0.0265
     39 H17         7.8927    8.1061    7.3659 H           1 LGS       0.0265
     40 H18         8.7438    5.9770    6.4369 H           1 LGS       0.0265
     41 H19         7.0038    6.0236    6.5468 H           1 LGS       0.0265
     42 H20         7.3303    4.6686    8.8069 H           1 LGS       0.0265
     43 H21         8.9586    4.3679    8.2057 H           1 LGS       0.0265
     44 H22         6.3118    3.6631    6.8397 H           1 LGS       0.0265
     45 H23         7.2996    2.5307    7.7393 H           1 LGS       0.0265
     46 H24         8.7313    2.1201    6.0034 H           1 LGS       0.0263
     47 H25         8.8440    3.8007    5.5207 H           1 LGS       0.0263
     48 H26         7.8354    2.4211    3.7329 H           1 LGS       0.0230
     49 H27         6.6926    3.6533    4.2972 H           1 LGS       0.0230
     50 H28         6.5043    1.9642    4.8117 H           1 LGS       0.0230
@<TRIPOS>BOND
     1     1     2   1
     2     2     3   1
     3     2     6   1
     4     3     4   1
     5     3    12   1
     6     4     5   1
     7     5    13   1
     8     6     7   1
     9     6     8   1
    10     8     9   1
    11     8    10   1
    12    10    11   1
    13    10    12   1
    14    12    13   1
    15    13    14   2
    16    14    15   1
    17    15    16   1
    18    16    17   1
    19    17    18   1
    20    18    19   1
    21    19    20   1
    22    20    21   1
    23    21    22   1
    24     1    23   1
    25     2    24   1
    26     3    25   1
    27     4    26   1
    28     4    27   1
    29     6    28   1
    30     7    29   1
    31     8    30   1
    32     9    31   1
    33    10    32   1
    34    11    33   1
    35    15    34   1
    36    15    35   1
    37    16    36   1
    38    16    37   1
    39    17    38   1
    40    17    39   1
    41    18    40   1
    42    18    41   1
    43    19    42   1
    44    19    43   1
    45    20    44   1
    46    20    45   1
    47    21    46   1
    48    21    47   1
    49    22    48   1
    50    22    49   1
    51    22    50   1
@<TRIPOS>SUBSTRUCTURE
     1  LGS      2

