@<TRIPOS>MOLECULE
2wbg_ligand_000
    50    51
SMALL
GAST_HUCK
****
This file was generated by PARSER (from files_GN.cpp)

@<TRIPOS>ATOM
      1 O4          0.8461    7.3294   14.0438 O.3         1 LGS      -0.3867
      2 C4          1.6220    6.5140   13.1668 C.3         1 LGS       0.1103
      3 C5          0.8373    6.1856   11.8613 C.3         1 LGS       0.1113
      4 C6          0.6041    7.3835   10.9165 C.3         1 LGS       0.1120
      5 O6          0.8870    6.9230    9.5908 O.3         1 LGS      -0.2547
      6 C3          2.0221    5.1978   13.8820 C.3         1 LGS       0.1137
      7 O3          2.7836    5.4961   15.0545 O.3         1 LGS      -0.3864
      8 C2          2.8539    4.2974   12.9239 C.3         1 LGS       0.1318
      9 O2          3.1223    3.0451   13.5545 O.3         1 LGS      -0.3843
     10 C1          2.1501    4.0729   11.5473 C.3         1 LGS       0.1770
     11 O1          3.0514    3.4321   10.6364 O.3         1 LGS      -0.3666
     12 N1          1.5848    5.3023   11.0285 N.pl3       1 LGS      -0.2126
     13 C7          1.5831    5.7617    9.7604 C.2         1 LGS       0.2439
     14 N2          2.1705    5.1265    8.7172 N.2         1 LGS      -0.3607
     15 C8          2.2287    5.5355    7.3538 C.3         1 LGS      -0.0300
     16 C9          3.6947    5.6811    6.8536 C.3         1 LGS      -0.0515
     17 C10         4.1696    4.5839    5.8669 C.3         1 LGS      -0.0530
     18 C11         4.2467    3.1580    6.4847 C.3         1 LGS      -0.0531
     19 C12         4.6063    2.0483    5.4591 C.3         1 LGS      -0.0531
     20 C13         6.0044    2.2268    4.7968 C.3         1 LGS      -0.0533
     21 C14         6.5271    0.9568    4.0621 C.3         1 LGS      -0.0559
     22 C15         6.4689    1.0305    2.5202 C.3         1 LGS      -0.0653
     23 H1          0.6311    8.1354   13.5290 H           1 LGS       0.2100
     24 H2          2.5323    7.0692   12.9132 H           1 LGS       0.0645
     25 H3         -0.1205    5.7158   12.1135 H           1 LGS       0.0626
     26 H4          1.2759    8.2165   11.1439 H           1 LGS       0.0660
     27 H5         -0.4284    7.7411   10.9752 H           1 LGS       0.0660
     28 H6          1.1155    4.6665   14.1906 H           1 LGS       0.0647
     29 H7          2.7102    4.7105   15.6410 H           1 LGS       0.2100
     30 H8          3.8156    4.7874   12.7413 H           1 LGS       0.0669
     31 H9          2.2422    2.6571   13.7428 H           1 LGS       0.2101
     32 H10         1.3221    3.3774   11.6893 H           1 LGS       0.0908
     33 H11         3.9123    3.3464   11.1010 H           1 LGS       0.2124
     34 H12         1.7129    6.4837    7.2192 H           1 LGS       0.0282
     35 H13         1.6901    4.8000    6.7580 H           1 LGS       0.0282
     36 H14         4.3907    5.7251    7.6994 H           1 LGS       0.0266
     37 H15         3.7809    6.6396    6.3305 H           1 LGS       0.0266
     38 H16         5.1626    4.8677    5.5127 H           1 LGS       0.0265
     39 H17         3.5034    4.5713    5.0020 H           1 LGS       0.0265
     40 H18         3.2812    2.9050    6.9304 H           1 LGS       0.0265
     41 H19         4.9856    3.1578    7.2917 H           1 LGS       0.0265
     42 H20         3.8374    2.0068    4.6823 H           1 LGS       0.0265
     43 H21         4.5949    1.0907    5.9901 H           1 LGS       0.0265
     44 H22         6.7209    2.4867    5.5824 H           1 LGS       0.0265
     45 H23         5.9754    3.0683    4.0982 H           1 LGS       0.0265
     46 H24         5.9672    0.0748    4.3881 H           1 LGS       0.0263
     47 H25         7.5735    0.7940    4.3376 H           1 LGS       0.0263
     48 H26         6.7634    0.0632    2.1048 H           1 LGS       0.0230
     49 H27         7.1561    1.7931    2.1490 H           1 LGS       0.0230
     50 H28         5.4616    1.2705    2.1792 H           1 LGS       0.0230
@<TRIPOS>BOND
     1     1     2   1
     2     2     3   1
     3     2     6   1
     4     3     4   1
     5     3    12   1
     6     4     5   1
     7     5    13   1
     8     6     7   1
     9     6     8   1
    10     8     9   1
    11     8    10   1
    12    10    11   1
    13    10    12   1
    14    12    13   1
    15    13    14   2
    16    14    15   1
    17    15    16   1
    18    16    17   1
    19    17    18   1
    20    18    19   1
    21    19    20   1
    22    20    21   1
    23    21    22   1
    24     1    23   1
    25     2    24   1
    26     3    25   1
    27     4    26   1
    28     4    27   1
    29     6    28   1
    30     7    29   1
    31     8    30   1
    32     9    31   1
    33    10    32   1
    34    11    33   1
    35    15    34   1
    36    15    35   1
    37    16    36   1
    38    16    37   1
    39    17    38   1
    40    17    39   1
    41    18    40   1
    42    18    41   1
    43    19    42   1
    44    19    43   1
    45    20    44   1
    46    20    45   1
    47    21    46   1
    48    21    47   1
    49    22    48   1
    50    22    49   1
    51    22    50   1
@<TRIPOS>SUBSTRUCTURE
     1  LGS      2

