@<TRIPOS>MOLECULE
2wbg_ligand_051
    50    51
SMALL
GAST_HUCK
****
This file was generated by PARSER (from files_GN.cpp)

@<TRIPOS>ATOM
      1 O4          5.8918    3.5956    3.3371 O.3         1 LGS      -0.3867
      2 C4          5.3932    4.6273    4.1865 C.3         1 LGS       0.1103
      3 C5          4.0627    4.1686    4.8471 C.3         1 LGS       0.1113
      4 C6          4.1524    3.0085    5.8634 C.3         1 LGS       0.1120
      5 O6          3.2494    3.3396    6.9280 O.3         1 LGS      -0.2547
      6 C3          5.2093    5.9704    3.4005 C.3         1 LGS       0.1137
      7 O3          6.3994    6.7522    3.5117 O.3         1 LGS      -0.3864
      8 C2          3.9905    6.8402    3.8582 C.3         1 LGS       0.1318
      9 O2          2.8323    6.5471    3.0733 O.3         1 LGS      -0.3843
     10 C1          3.6231    6.6049    5.3496 C.3         1 LGS       0.1770
     11 O1          4.6070    7.2138    6.1889 O.3         1 LGS      -0.3666
     12 N1          3.5486    5.2025    5.6731 N.pl3       1 LGS      -0.2126
     13 C7          3.1250    4.6932    6.8467 C.2         1 LGS       0.2439
     14 N2          2.6258    5.4610    7.8392 N.2         1 LGS      -0.3607
     15 C8          2.1232    5.0534    9.1065 C.3         1 LGS      -0.0300
     16 C9          3.0063    5.5764   10.2769 C.3         1 LGS      -0.0515
     17 C10         2.2694    6.5430   11.2486 C.3         1 LGS      -0.0530
     18 C11         3.0877    7.0438   12.4777 C.3         1 LGS      -0.0531
     19 C12         4.1078    6.0806   13.1556 C.3         1 LGS      -0.0531
     20 C13         3.6939    4.8116   13.9719 C.3         1 LGS      -0.0533
     21 C14         2.2453    4.2573   13.9249 C.3         1 LGS      -0.0559
     22 C15         1.2440    4.9547   14.8739 C.3         1 LGS      -0.0653
     23 H1          6.7589    3.9197    3.0144 H           1 LGS       0.2100
     24 H2          6.1293    4.7788    4.9816 H           1 LGS       0.0645
     25 H3          3.3294    3.9263    4.0706 H           1 LGS       0.0626
     26 H4          5.1618    2.9130    6.2742 H           1 LGS       0.0660
     27 H5          3.8680    2.0556    5.4111 H           1 LGS       0.0660
     28 H6          5.0832    5.7489    2.3396 H           1 LGS       0.0647
     29 H7          7.1086    6.2082    3.1092 H           1 LGS       0.2100
     30 H8          4.2032    7.9026    3.7062 H           1 LGS       0.0669
     31 H9          3.0194    6.9296    2.1896 H           1 LGS       0.2101
     32 H10         2.6565    7.0750    5.5542 H           1 LGS       0.0908
     33 H11         4.6242    8.1586    5.9258 H           1 LGS       0.2124
     34 H12         2.0605    3.9639    9.1646 H           1 LGS       0.0282
     35 H13         1.1052    5.4400    9.1801 H           1 LGS       0.0282
     36 H14         3.9037    6.0721    9.8929 H           1 LGS       0.0266
     37 H15         3.3402    4.7061   10.8477 H           1 LGS       0.0266
     38 H16         1.3609    6.0568   11.6058 H           1 LGS       0.0265
     39 H17         1.9497    7.4226   10.6784 H           1 LGS       0.0265
     40 H18         2.4018    7.4235   13.2392 H           1 LGS       0.0265
     41 H19         3.6759    7.9029   12.1353 H           1 LGS       0.0265
     42 H20         4.6860    6.7097   13.8345 H           1 LGS       0.0265
     43 H21         4.8207    5.7788   12.3825 H           1 LGS       0.0265
     44 H22         3.9518    4.9694   15.0244 H           1 LGS       0.0265
     45 H23         4.3410    3.9970   13.6257 H           1 LGS       0.0265
     46 H24         2.2865    3.2052   14.2215 H           1 LGS       0.0263
     47 H25         1.8744    4.2750   12.9046 H           1 LGS       0.0263
     48 H26         0.2508    4.5277   14.7238 H           1 LGS       0.0230
     49 H27         1.1981    6.0273   14.6904 H           1 LGS       0.0230
     50 H28         1.5377    4.7872   15.9120 H           1 LGS       0.0230
@<TRIPOS>BOND
     1     1     2   1
     2     2     3   1
     3     2     6   1
     4     3     4   1
     5     3    12   1
     6     4     5   1
     7     5    13   1
     8     6     7   1
     9     6     8   1
    10     8     9   1
    11     8    10   1
    12    10    11   1
    13    10    12   1
    14    12    13   1
    15    13    14   2
    16    14    15   1
    17    15    16   1
    18    16    17   1
    19    17    18   1
    20    18    19   1
    21    19    20   1
    22    20    21   1
    23    21    22   1
    24     1    23   1
    25     2    24   1
    26     3    25   1
    27     4    26   1
    28     4    27   1
    29     6    28   1
    30     7    29   1
    31     8    30   1
    32     9    31   1
    33    10    32   1
    34    11    33   1
    35    15    34   1
    36    15    35   1
    37    16    36   1
    38    16    37   1
    39    17    38   1
    40    17    39   1
    41    18    40   1
    42    18    41   1
    43    19    42   1
    44    19    43   1
    45    20    44   1
    46    20    45   1
    47    21    46   1
    48    21    47   1
    49    22    48   1
    50    22    49   1
    51    22    50   1
@<TRIPOS>SUBSTRUCTURE
     1  LGS      2

