@<TRIPOS>MOLECULE
2wbg_ligand_026
    50    51
SMALL
GAST_HUCK
****
This file was generated by PARSER (from files_GN.cpp)

@<TRIPOS>ATOM
      1 O4          6.7250   11.2766   12.2072 O.3         1 LGS      -0.3867
      2 C4          5.8906   10.6869   11.2075 C.3         1 LGS       0.1103
      3 C5          6.0750    9.1396   11.1936 C.3         1 LGS       0.1113
      4 C6          5.4413    8.4173   12.4010 C.3         1 LGS       0.1120
      5 O6          4.6969    7.3147   11.8838 O.3         1 LGS      -0.2547
      6 C3          6.1975   11.2806    9.8061 C.3         1 LGS       0.1137
      7 O3          5.8976   12.6720    9.8033 O.3         1 LGS      -0.3864
      8 C2          5.3588   10.5598    8.7087 C.3         1 LGS       0.1318
      9 O2          5.6970   11.0672    7.4174 O.3         1 LGS      -0.3843
     10 C1          5.5975    9.0251    8.7512 C.3         1 LGS       0.1770
     11 O1          4.7768    8.4063    7.7619 O.3         1 LGS      -0.3666
     12 N1          5.3936    8.5386   10.1005 N.pl3       1 LGS      -0.2126
     13 C7          4.6102    7.5392   10.5437 C.2         1 LGS       0.2439
     14 N2          3.8039    6.8004    9.7519 N.2         1 LGS      -0.3607
     15 C8          2.8902    5.7833   10.1492 C.3         1 LGS      -0.0300
     16 C9          1.4457    6.1486    9.7183 C.3         1 LGS      -0.0515
     17 C10         0.9276    7.5440   10.1893 C.3         1 LGS      -0.0530
     18 C11         0.0232    7.5621   11.4553 C.3         1 LGS      -0.0531
     19 C12         0.7006    7.1312   12.7910 C.3         1 LGS      -0.0531
     20 C13         0.5857    5.6113   13.1015 C.3         1 LGS      -0.0533
     21 C14         1.2438    5.1772   14.4392 C.3         1 LGS      -0.0559
     22 C15         2.6761    4.6145   14.2822 C.3         1 LGS      -0.0653
     23 H1          7.6111   10.8813   12.0760 H           1 LGS       0.2100
     24 H2          4.8550   10.9328   11.4562 H           1 LGS       0.0645
     25 H3          7.1360    8.8883   11.1142 H           1 LGS       0.0626
     26 H4          4.7501    9.0681   12.9411 H           1 LGS       0.0660
     27 H5          6.2023    8.0605   13.0972 H           1 LGS       0.0660
     28 H6          7.2632   11.1602    9.5826 H           1 LGS       0.0647
     29 H7          6.5296   13.0782   10.4306 H           1 LGS       0.2100
     30 H8          4.2963   10.7572    8.8788 H           1 LGS       0.0669
     31 H9          5.4145   12.0061    7.4259 H           1 LGS       0.2101
     32 H10         6.6357    8.8240    8.4741 H           1 LGS       0.0908
     33 H11         5.0243    7.4568    7.7768 H           1 LGS       0.2124
     34 H12         2.9327    5.6173   11.2237 H           1 LGS       0.0282
     35 H13         3.1845    4.8544    9.6602 H           1 LGS       0.0282
     36 H14         0.7626    5.3705   10.0652 H           1 LGS       0.0266
     37 H15         1.4089    6.1119    8.6243 H           1 LGS       0.0266
     38 H16         0.3256    7.9554    9.3704 H           1 LGS       0.0265
     39 H17         1.7517    8.2349   10.3362 H           1 LGS       0.0265
     40 H18        -0.8669    6.9559   11.2674 H           1 LGS       0.0265
     41 H19        -0.3249    8.5948   11.5749 H           1 LGS       0.0265
     42 H20         0.2066    7.6630   13.6089 H           1 LGS       0.0265
     43 H21         1.7475    7.4455   12.7935 H           1 LGS       0.0265
     44 H22         1.0085    5.0174   12.2934 H           1 LGS       0.0265
     45 H23        -0.4780    5.3577   13.1418 H           1 LGS       0.0265
     46 H24         0.6262    4.3967   14.8911 H           1 LGS       0.0263
     47 H25         1.2643    6.0214   15.1321 H           1 LGS       0.0263
     48 H26         3.0806    4.3538   15.2634 H           1 LGS       0.0230
     49 H27         3.3357    5.3531   13.8241 H           1 LGS       0.0230
     50 H28         2.6656    3.7131   13.6639 H           1 LGS       0.0230
@<TRIPOS>BOND
     1     1     2   1
     2     2     3   1
     3     2     6   1
     4     3     4   1
     5     3    12   1
     6     4     5   1
     7     5    13   1
     8     6     7   1
     9     6     8   1
    10     8     9   1
    11     8    10   1
    12    10    11   1
    13    10    12   1
    14    12    13   1
    15    13    14   2
    16    14    15   1
    17    15    16   1
    18    16    17   1
    19    17    18   1
    20    18    19   1
    21    19    20   1
    22    20    21   1
    23    21    22   1
    24     1    23   1
    25     2    24   1
    26     3    25   1
    27     4    26   1
    28     4    27   1
    29     6    28   1
    30     7    29   1
    31     8    30   1
    32     9    31   1
    33    10    32   1
    34    11    33   1
    35    15    34   1
    36    15    35   1
    37    16    36   1
    38    16    37   1
    39    17    38   1
    40    17    39   1
    41    18    40   1
    42    18    41   1
    43    19    42   1
    44    19    43   1
    45    20    44   1
    46    20    45   1
    47    21    46   1
    48    21    47   1
    49    22    48   1
    50    22    49   1
    51    22    50   1
@<TRIPOS>SUBSTRUCTURE
     1  LGS      2

