@<TRIPOS>MOLECULE
2wbg_ligand_036
    50    51
SMALL
GAST_HUCK
****
This file was generated by PARSER (from files_GN.cpp)

@<TRIPOS>ATOM
      1 O4          3.8490    4.6509   14.9923 O.3         1 LGS      -0.3867
      2 C4          2.9037    4.8985   13.9521 C.3         1 LGS       0.1103
      3 C5          3.6227    5.7617   12.8726 C.3         1 LGS       0.1113
      4 C6          4.6749    5.0298   12.0186 C.3         1 LGS       0.1120
      5 O6          4.5110    5.4925   10.6758 O.3         1 LGS      -0.2547
      6 C3          1.5958    5.5687   14.5064 C.3         1 LGS       0.1137
      7 O3          0.5015    4.6430   14.5384 O.3         1 LGS      -0.3864
      8 C2          1.1549    6.8346   13.7013 C.3         1 LGS       0.1318
      9 O2          1.8726    7.9549   14.2319 O.3         1 LGS      -0.3843
     10 C1          1.4007    6.6918   12.1666 C.3         1 LGS       0.1770
     11 O1          0.4401    5.7996   11.5940 O.3         1 LGS      -0.3666
     12 N1          2.7196    6.2065   11.8709 N.pl3       1 LGS      -0.2126
     13 C7          3.2673    6.0453   10.6505 C.2         1 LGS       0.2439
     14 N2          2.7027    6.4236    9.4798 N.2         1 LGS      -0.3607
     15 C8          3.3120    6.2607    8.1949 C.3         1 LGS      -0.0300
     16 C9          4.5839    7.1452    8.0059 C.3         1 LGS      -0.0515
     17 C10         5.5630    6.7059    6.8733 C.3         1 LGS      -0.0530
     18 C11         6.2125    5.2988    6.9854 C.3         1 LGS      -0.0531
     19 C12         7.0391    4.9559    8.2640 C.3         1 LGS      -0.0531
     20 C13         8.4519    5.6229    8.3705 C.3         1 LGS      -0.0533
     21 C14         8.6050    6.7394    9.4505 C.3         1 LGS      -0.0559
     22 C15         9.1942    8.0624    8.9122 C.3         1 LGS      -0.0653
     23 H1          3.3816    4.1068   15.6596 H           1 LGS       0.2100
     24 H2          2.6347    3.9384   13.5071 H           1 LGS       0.0645
     25 H3          4.0828    6.6349   13.3488 H           1 LGS       0.0626
     26 H4          4.5288    3.9458   12.0372 H           1 LGS       0.0660
     27 H5          5.6888    5.2556   12.3510 H           1 LGS       0.0660
     28 H6          1.7579    5.8672   15.5470 H           1 LGS       0.0647
     29 H7          0.8804    3.7759   14.8057 H           1 LGS       0.2100
     30 H8          0.0971    7.0442   13.8699 H           1 LGS       0.0669
     31 H9          2.3743    8.3528   13.4923 H           1 LGS       0.2101
     32 H10         1.2661    7.6688   11.6935 H           1 LGS       0.0908
     33 H11         0.5217    4.9542   12.0929 H           1 LGS       0.2124
     34 H12         2.5815    6.5248    7.4278 H           1 LGS       0.0282
     35 H13         3.5491    5.2030    8.0750 H           1 LGS       0.0282
     36 H14         5.1568    7.2026    8.9297 H           1 LGS       0.0266
     37 H15         4.2484    8.1650    7.7840 H           1 LGS       0.0266
     38 H16         6.3593    7.4527    6.8126 H           1 LGS       0.0265
     39 H17         5.0188    6.7516    5.9274 H           1 LGS       0.0265
     40 H18         6.8723    5.1725    6.1241 H           1 LGS       0.0265
     41 H19         5.4323    4.5494    6.8772 H           1 LGS       0.0265
     42 H20         7.1801    3.8653    8.2682 H           1 LGS       0.0265
     43 H21         6.4454    5.1782    9.1637 H           1 LGS       0.0265
     44 H22         8.7344    6.0033    7.3888 H           1 LGS       0.0265
     45 H23         9.1774    4.8365    8.6034 H           1 LGS       0.0265
     46 H24         9.2697    6.3783   10.2463 H           1 LGS       0.0263
     47 H25         7.6440    6.9707    9.9225 H           1 LGS       0.0263
     48 H26         9.3588    8.7575    9.7384 H           1 LGS       0.0230
     49 H27         8.5013    8.5176    8.2037 H           1 LGS       0.0230
     50 H28        10.1467    7.8737    8.4105 H           1 LGS       0.0230
@<TRIPOS>BOND
     1     1     2   1
     2     2     3   1
     3     2     6   1
     4     3     4   1
     5     3    12   1
     6     4     5   1
     7     5    13   1
     8     6     7   1
     9     6     8   1
    10     8     9   1
    11     8    10   1
    12    10    11   1
    13    10    12   1
    14    12    13   1
    15    13    14   2
    16    14    15   1
    17    15    16   1
    18    16    17   1
    19    17    18   1
    20    18    19   1
    21    19    20   1
    22    20    21   1
    23    21    22   1
    24     1    23   1
    25     2    24   1
    26     3    25   1
    27     4    26   1
    28     4    27   1
    29     6    28   1
    30     7    29   1
    31     8    30   1
    32     9    31   1
    33    10    32   1
    34    11    33   1
    35    15    34   1
    36    15    35   1
    37    16    36   1
    38    16    37   1
    39    17    38   1
    40    17    39   1
    41    18    40   1
    42    18    41   1
    43    19    42   1
    44    19    43   1
    45    20    44   1
    46    20    45   1
    47    21    46   1
    48    21    47   1
    49    22    48   1
    50    22    49   1
    51    22    50   1
@<TRIPOS>SUBSTRUCTURE
     1  LGS      2

