@<TRIPOS>MOLECULE
2wbg_ligand_015
    50    51
SMALL
GAST_HUCK
****
This file was generated by PARSER (from files_GN.cpp)

@<TRIPOS>ATOM
      1 O4          7.3019   13.3746    8.5327 O.3         1 LGS      -0.3867
      2 C4          7.0387   12.1284    9.1760 C.3         1 LGS       0.1103
      3 C5          5.7232   11.5012    8.6301 C.3         1 LGS       0.1113
      4 C6          5.7316   11.0939    7.1471 C.3         1 LGS       0.1120
      5 O6          5.0559    9.8379    7.0840 O.3         1 LGS      -0.2547
      6 C3          6.9997   12.3082   10.7320 C.3         1 LGS       0.1137
      7 O3          8.3075   12.0980   11.2787 O.3         1 LGS      -0.3864
      8 C2          5.9534   11.3925   11.4504 C.3         1 LGS       0.1318
      9 O2          4.7235   12.1128   11.6011 O.3         1 LGS      -0.3843
     10 C1          5.6571   10.0723   10.6830 C.3         1 LGS       0.1770
     11 O1          6.7291    9.1472   10.8854 O.3         1 LGS      -0.3666
     12 N1          5.4573   10.2612    9.2665 N.pl3       1 LGS      -0.2126
     13 C7          5.0762    9.3480    8.3483 C.2         1 LGS       0.2439
     14 N2          4.6789    8.0589    8.4609 N.2         1 LGS      -0.3607
     15 C8          4.4857    7.0908    9.4967 C.3         1 LGS      -0.0300
     16 C9          2.9947    6.6252    9.5856 C.3         1 LGS      -0.0515
     17 C10         2.7426    5.1473    9.1795 C.3         1 LGS      -0.0530
     18 C11         3.1426    4.0537   10.2152 C.3         1 LGS      -0.0531
     19 C12         2.3534    4.0444   11.5637 C.3         1 LGS      -0.0531
     20 C13         2.9899    4.8699   12.7186 C.3         1 LGS      -0.0533
     21 C14         2.6355    4.3591   14.1461 C.3         1 LGS      -0.0559
     22 C15         1.3586    4.9634   14.7769 C.3         1 LGS      -0.0653
     23 H1          6.5394   13.9577    8.7496 H           1 LGS       0.2100
     24 H2          7.8660   11.4538    8.9213 H           1 LGS       0.0645
     25 H3          4.8950   12.1874    8.8185 H           1 LGS       0.0626
     26 H4          6.7487   10.9640    6.7662 H           1 LGS       0.0660
     27 H5          5.2134   11.8335    6.5323 H           1 LGS       0.0660
     28 H6          6.7579   13.3500   10.9668 H           1 LGS       0.0647
     29 H7          8.3585   11.1497   11.5157 H           1 LGS       0.2100
     30 H8          6.2939   11.1548   12.4629 H           1 LGS       0.0669
     31 H9          4.0582   11.4308   11.8446 H           1 LGS       0.2101
     32 H10         4.7526    9.6393   11.1141 H           1 LGS       0.0908
     33 H11         7.4913    9.5209   10.3986 H           1 LGS       0.2124
     34 H12         4.7970    7.4647   10.4753 H           1 LGS       0.0282
     35 H13         5.1410    6.2480    9.2614 H           1 LGS       0.0282
     36 H14         2.3784    7.2554    8.9394 H           1 LGS       0.0266
     37 H15         2.6069    6.7723   10.5963 H           1 LGS       0.0266
     38 H16         3.2804    4.9486    8.2455 H           1 LGS       0.0265
     39 H17         1.6767    5.0302    8.9567 H           1 LGS       0.0265
     40 H18         4.2142    4.0986   10.4118 H           1 LGS       0.0265
     41 H19         2.9607    3.0916    9.7221 H           1 LGS       0.0265
     42 H20         2.2923    3.0066   11.9041 H           1 LGS       0.0265
     43 H21         1.3335    4.3892   11.3852 H           1 LGS       0.0265
     44 H22         2.7030    5.9216   12.6439 H           1 LGS       0.0265
     45 H23         4.0797    4.8283   12.6189 H           1 LGS       0.0265
     46 H24         3.4729    4.5926   14.8094 H           1 LGS       0.0263
     47 H25         2.5337    3.2707   14.1223 H           1 LGS       0.0263
     48 H26         1.2148    4.5458   15.7761 H           1 LGS       0.0230
     49 H27         0.4756    4.7278   14.1817 H           1 LGS       0.0230
     50 H28         1.4525    6.0482   14.8630 H           1 LGS       0.0230
@<TRIPOS>BOND
     1     1     2   1
     2     2     3   1
     3     2     6   1
     4     3     4   1
     5     3    12   1
     6     4     5   1
     7     5    13   1
     8     6     7   1
     9     6     8   1
    10     8     9   1
    11     8    10   1
    12    10    11   1
    13    10    12   1
    14    12    13   1
    15    13    14   2
    16    14    15   1
    17    15    16   1
    18    16    17   1
    19    17    18   1
    20    18    19   1
    21    19    20   1
    22    20    21   1
    23    21    22   1
    24     1    23   1
    25     2    24   1
    26     3    25   1
    27     4    26   1
    28     4    27   1
    29     6    28   1
    30     7    29   1
    31     8    30   1
    32     9    31   1
    33    10    32   1
    34    11    33   1
    35    15    34   1
    36    15    35   1
    37    16    36   1
    38    16    37   1
    39    17    38   1
    40    17    39   1
    41    18    40   1
    42    18    41   1
    43    19    42   1
    44    19    43   1
    45    20    44   1
    46    20    45   1
    47    21    46   1
    48    21    47   1
    49    22    48   1
    50    22    49   1
    51    22    50   1
@<TRIPOS>SUBSTRUCTURE
     1  LGS      2

