@<TRIPOS>MOLECULE
2wbg_ligand_028
    50    51
SMALL
GAST_HUCK
****
This file was generated by PARSER (from files_GN.cpp)

@<TRIPOS>ATOM
      1 O4          7.5819   13.6742    9.4167 O.3         1 LGS      -0.3867
      2 C4          7.2260   12.3151    9.6871 C.3         1 LGS       0.1103
      3 C5          6.3940   11.7301    8.5087 C.3         1 LGS       0.1113
      4 C6          7.1526   11.5388    7.1768 C.3         1 LGS       0.1120
      5 O6          6.7419   10.2691    6.6606 O.3         1 LGS      -0.2547
      6 C3          6.4772   12.1827   11.0581 C.3         1 LGS       0.1137
      7 O3          7.4082   11.8603   12.0923 O.3         1 LGS      -0.3864
      8 C2          5.3059   11.1446   11.0678 C.3         1 LGS       0.1318
      9 O2          4.0867   11.7856   10.6831 O.3         1 LGS      -0.3843
     10 C1          5.5490    9.9553   10.0941 C.3         1 LGS       0.1770
     11 O1          6.5285    9.0671   10.6362 O.3         1 LGS      -0.3666
     12 N1          6.0035   10.3990    8.7995 N.pl3       1 LGS      -0.2126
     13 C7          6.2333    9.6098    7.7352 C.2         1 LGS       0.2439
     14 N2          5.9882    8.2840    7.7303 N.2         1 LGS      -0.3607
     15 C8          6.2241    7.3733    6.6637 C.3         1 LGS      -0.0300
     16 C9          5.3617    7.6589    5.3932 C.3         1 LGS      -0.0515
     17 C10         4.4724    6.4633    4.9508 C.3         1 LGS      -0.0530
     18 C11         3.1851    6.2791    5.8089 C.3         1 LGS      -0.0531
     19 C12         2.6763    4.8142    5.9486 C.3         1 LGS      -0.0531
     20 C13         2.2758    4.0717    4.6365 C.3         1 LGS      -0.0533
     21 C14         3.4679    3.4559    3.8467 C.3         1 LGS      -0.0559
     22 C15         3.0118    2.6308    2.6249 C.3         1 LGS      -0.0653
     23 H1          6.7340   14.1560    9.2977 H           1 LGS       0.2100
     24 H2          8.1641   11.7527    9.7504 H           1 LGS       0.0645
     25 H3          5.4999   12.3429    8.3475 H           1 LGS       0.0626
     26 H4          8.2349   11.5216    7.3290 H           1 LGS       0.0660
     27 H5          6.9123   12.3309    6.4656 H           1 LGS       0.0660
     28 H6          6.0648   13.1591   11.3264 H           1 LGS       0.0647
     29 H7          7.7700   10.9792   11.8714 H           1 LGS       0.2100
     30 H8          5.1530   10.7609   12.0822 H           1 LGS       0.0669
     31 H9          3.9041   12.4393   11.3899 H           1 LGS       0.2101
     32 H10         4.6143    9.3977    9.9820 H           1 LGS       0.0908
     33 H11         6.1575    8.7460   11.4868 H           1 LGS       0.2124
     34 H12         6.0273    6.3726    7.0527 H           1 LGS       0.0282
     35 H13         7.2847    7.4115    6.4073 H           1 LGS       0.0282
     36 H14         6.0356    7.8944    4.5682 H           1 LGS       0.0266
     37 H15         4.7262    8.5381    5.5341 H           1 LGS       0.0266
     38 H16         5.0749    5.5535    4.9788 H           1 LGS       0.0265
     39 H17         4.1644    6.6244    3.9128 H           1 LGS       0.0265
     40 H18         2.3827    6.8911    5.3875 H           1 LGS       0.0265
     41 H19         3.3630    6.6491    6.8241 H           1 LGS       0.0265
     42 H20         1.7866    4.8468    6.5895 H           1 LGS       0.0265
     43 H21         3.4264    4.2241    6.4872 H           1 LGS       0.0265
     44 H22         1.7035    4.7461    3.9890 H           1 LGS       0.0265
     45 H23         1.6100    3.2484    4.9182 H           1 LGS       0.0265
     46 H24         4.0502    2.8067    4.5096 H           1 LGS       0.0263
     47 H25         4.1236    4.2496    3.4806 H           1 LGS       0.0263
     48 H26         3.8928    2.2449    2.1060 H           1 LGS       0.0230
     49 H27         2.4472    3.2737    1.9445 H           1 LGS       0.0230
     50 H28         2.3850    1.7873    2.9323 H           1 LGS       0.0230
@<TRIPOS>BOND
     1     1     2   1
     2     2     3   1
     3     2     6   1
     4     3     4   1
     5     3    12   1
     6     4     5   1
     7     5    13   1
     8     6     7   1
     9     6     8   1
    10     8     9   1
    11     8    10   1
    12    10    11   1
    13    10    12   1
    14    12    13   1
    15    13    14   2
    16    14    15   1
    17    15    16   1
    18    16    17   1
    19    17    18   1
    20    18    19   1
    21    19    20   1
    22    20    21   1
    23    21    22   1
    24     1    23   1
    25     2    24   1
    26     3    25   1
    27     4    26   1
    28     4    27   1
    29     6    28   1
    30     7    29   1
    31     8    30   1
    32     9    31   1
    33    10    32   1
    34    11    33   1
    35    15    34   1
    36    15    35   1
    37    16    36   1
    38    16    37   1
    39    17    38   1
    40    17    39   1
    41    18    40   1
    42    18    41   1
    43    19    42   1
    44    19    43   1
    45    20    44   1
    46    20    45   1
    47    21    46   1
    48    21    47   1
    49    22    48   1
    50    22    49   1
    51    22    50   1
@<TRIPOS>SUBSTRUCTURE
     1  LGS      2

