@<TRIPOS>MOLECULE
2wbg_ligand_006
    50    51
SMALL
GAST_HUCK
****
This file was generated by PARSER (from files_GN.cpp)

@<TRIPOS>ATOM
      1 O4         -0.7325    6.8055   11.8694 O.3         1 LGS      -0.3867
      2 C4          0.6917    6.8767   11.9244 C.3         1 LGS       0.1103
      3 C5          1.3178    6.0776   10.7514 C.3         1 LGS       0.1113
      4 C6          1.0318    6.6297    9.3380 C.3         1 LGS       0.1120
      5 O6          2.2605    6.5330    8.6087 O.3         1 LGS      -0.2547
      6 C3          1.2440    6.3958   13.3081 C.3         1 LGS       0.1137
      7 O3          1.2889    7.5002   14.2241 O.3         1 LGS      -0.3864
      8 C2          2.6443    5.6839   13.2493 C.3         1 LGS       0.1318
      9 O2          2.4942    4.2610   13.2780 O.3         1 LGS      -0.3843
     10 C1          3.5022    6.0796   12.0118 C.3         1 LGS       0.1770
     11 O1          4.1332    7.3371   12.2568 O.3         1 LGS      -0.3666
     12 N1          2.7334    6.1659   10.7955 N.pl3       1 LGS      -0.2126
     13 C7          3.2214    6.4187    9.5647 C.2         1 LGS       0.2439
     14 N2          4.5397    6.5229    9.2845 N.2         1 LGS      -0.3607
     15 C8          5.1663    6.7781    8.0320 C.3         1 LGS      -0.0300
     16 C9          4.8922    5.6922    6.9487 C.3         1 LGS      -0.0515
     17 C10         3.7321    6.0059    5.9372 C.3         1 LGS      -0.0530
     18 C11         2.6593    4.8777    5.7797 C.3         1 LGS      -0.0531
     19 C12         2.1726    4.6058    4.3256 C.3         1 LGS      -0.0531
     20 C13         3.2257    4.0060    3.3459 C.3         1 LGS      -0.0533
     21 C14         3.6288    2.5321    3.6332 C.3         1 LGS      -0.0559
     22 C15         5.0780    2.2121    3.2042 C.3         1 LGS      -0.0653
     23 H1         -0.9537    5.8523   11.7980 H           1 LGS       0.2100
     24 H2          0.9566    7.9290   11.7914 H           1 LGS       0.0645
     25 H3          1.0250    5.0252   10.8124 H           1 LGS       0.0626
     26 H4          0.7199    7.6789    9.3646 H           1 LGS       0.0660
     27 H5          0.2590    6.0494    8.8294 H           1 LGS       0.0660
     28 H6          0.5301    5.6927   13.7441 H           1 LGS       0.0647
     29 H7          1.4789    8.3022   13.6735 H           1 LGS       0.2100
     30 H8          3.2115    5.9189   14.1526 H           1 LGS       0.0669
     31 H9          1.5833    4.0547   12.9767 H           1 LGS       0.2101
     32 H10         4.2957    5.3363   11.8822 H           1 LGS       0.0908
     33 H11         3.4186    8.0039   12.2502 H           1 LGS       0.2124
     34 H12         6.2368    6.8077    8.2304 H           1 LGS       0.0282
     35 H13         4.8766    7.7675    7.6787 H           1 LGS       0.0282
     36 H14         4.7301    4.7339    7.4562 H           1 LGS       0.0266
     37 H15         5.8105    5.5624    6.3611 H           1 LGS       0.0266
     38 H16         4.1901    6.2266    4.9709 H           1 LGS       0.0265
     39 H17         3.2211    6.9264    6.2250 H           1 LGS       0.0265
     40 H18         1.7805    5.1627    6.3695 H           1 LGS       0.0265
     41 H19         3.0174    3.9358    6.2000 H           1 LGS       0.0265
     42 H20         1.8080    5.5490    3.9005 H           1 LGS       0.0265
     43 H21         1.3219    3.9209    4.3644 H           1 LGS       0.0265
     44 H22         4.1094    4.6413    3.3460 H           1 LGS       0.0265
     45 H23         2.8118    4.0441    2.3360 H           1 LGS       0.0265
     46 H24         2.9406    1.8571    3.1072 H           1 LGS       0.0263
     47 H25         3.5494    2.3104    4.7009 H           1 LGS       0.0263
     48 H26         5.3092    1.1697    3.4286 H           1 LGS       0.0230
     49 H27         5.7739    2.8440    3.7591 H           1 LGS       0.0230
     50 H28         5.2155    2.3808    2.1364 H           1 LGS       0.0230
@<TRIPOS>BOND
     1     1     2   1
     2     2     3   1
     3     2     6   1
     4     3     4   1
     5     3    12   1
     6     4     5   1
     7     5    13   1
     8     6     7   1
     9     6     8   1
    10     8     9   1
    11     8    10   1
    12    10    11   1
    13    10    12   1
    14    12    13   1
    15    13    14   2
    16    14    15   1
    17    15    16   1
    18    16    17   1
    19    17    18   1
    20    18    19   1
    21    19    20   1
    22    20    21   1
    23    21    22   1
    24     1    23   1
    25     2    24   1
    26     3    25   1
    27     4    26   1
    28     4    27   1
    29     6    28   1
    30     7    29   1
    31     8    30   1
    32     9    31   1
    33    10    32   1
    34    11    33   1
    35    15    34   1
    36    15    35   1
    37    16    36   1
    38    16    37   1
    39    17    38   1
    40    17    39   1
    41    18    40   1
    42    18    41   1
    43    19    42   1
    44    19    43   1
    45    20    44   1
    46    20    45   1
    47    21    46   1
    48    21    47   1
    49    22    48   1
    50    22    49   1
    51    22    50   1
@<TRIPOS>SUBSTRUCTURE
     1  LGS      2

