@<TRIPOS>MOLECULE
2wbg_ligand_010
    50    51
SMALL
GAST_HUCK
****
This file was generated by PARSER (from files_GN.cpp)

@<TRIPOS>ATOM
      1 O4         -0.7657    6.8854   11.5396 O.3         1 LGS      -0.3867
      2 C4          0.6181    6.8530   11.9011 C.3         1 LGS       0.1103
      3 C5          1.4480    6.0525   10.8571 C.3         1 LGS       0.1113
      4 C6          1.4648    6.6413    9.4373 C.3         1 LGS       0.1120
      5 O6          2.7707    6.3455    8.9330 O.3         1 LGS      -0.2547
      6 C3          0.8255    6.2749   13.3387 C.3         1 LGS       0.1137
      7 O3          0.6673    7.2932   14.3355 O.3         1 LGS      -0.3864
      8 C2          2.2056    5.5539   13.5357 C.3         1 LGS       0.1318
      9 O2          2.0790    4.1432   13.3330 O.3         1 LGS      -0.3843
     10 C1          3.3071    6.0229   12.5363 C.3         1 LGS       0.1770
     11 O1          3.8017    7.3093   12.9155 O.3         1 LGS      -0.3666
     12 N1          2.8337    6.0732   11.1754 N.pl3       1 LGS      -0.2126
     13 C7          3.5580    6.2325   10.0401 C.2         1 LGS       0.2439
     14 N2          4.8954    6.3014    9.8281 N.2         1 LGS      -0.3607
     15 C8          6.0405    6.2794   10.6831 C.3         1 LGS      -0.0300
     16 C9          7.3778    6.3004    9.8875 C.3         1 LGS      -0.0515
     17 C10         7.4536    7.2123    8.6261 C.3         1 LGS      -0.0530
     18 C11         6.9717    8.6813    8.7959 C.3         1 LGS      -0.0531
     19 C12         7.9933    9.6774    9.4352 C.3         1 LGS      -0.0531
     20 C13         7.2847   10.8417   10.2003 C.3         1 LGS      -0.0533
     21 C14         8.1131   12.1515   10.3615 C.3         1 LGS      -0.0559
     22 C15         7.2060   13.4017   10.4900 C.3         1 LGS      -0.0653
     23 H1         -1.0758    5.9568   11.6073 H           1 LGS       0.2100
     24 H2          0.9712    7.8897   11.8819 H           1 LGS       0.0645
     25 H3          1.0984    5.0128   10.8215 H           1 LGS       0.0626
     26 H4          1.3218    7.7257    9.4624 H           1 LGS       0.0660
     27 H5          0.6968    6.1971    8.8014 H           1 LGS       0.0660
     28 H6          0.0358    5.5440   13.5310 H           1 LGS       0.0647
     29 H7          0.4874    8.1369   13.8746 H           1 LGS       0.2100
     30 H8          2.5673    5.6931   14.5589 H           1 LGS       0.0669
     31 H9          1.4933    3.8049   14.0420 H           1 LGS       0.2101
     32 H10         4.1419    5.3214   12.6114 H           1 LGS       0.0908
     33 H11         3.1382    7.9702   12.6132 H           1 LGS       0.2124
     34 H12         6.0301    5.3768   11.2999 H           1 LGS       0.0282
     35 H13         6.0062    7.1475   11.3416 H           1 LGS       0.0282
     36 H14         7.5951    5.2745    9.5640 H           1 LGS       0.0266
     37 H15         8.1817    6.5877   10.5734 H           1 LGS       0.0266
     38 H16         6.8411    6.7460    7.8429 H           1 LGS       0.0265
     39 H17         8.4878    7.2236    8.2611 H           1 LGS       0.0265
     40 H18         6.0449    8.6759    9.3781 H           1 LGS       0.0265
     41 H19         6.7165    9.0600    7.7988 H           1 LGS       0.0265
     42 H20         8.6173   10.0878    8.6316 H           1 LGS       0.0265
     43 H21         8.6448    9.1441   10.1345 H           1 LGS       0.0265
     44 H22         6.9984   10.4769   11.1941 H           1 LGS       0.0265
     45 H23         6.3648   11.1029    9.6614 H           1 LGS       0.0265
     46 H24         8.7570   12.2773    9.4823 H           1 LGS       0.0263
     47 H25         8.7560   12.0826   11.2498 H           1 LGS       0.0263
     48 H26         7.8146   14.3086   10.5420 H           1 LGS       0.0230
     49 H27         6.5983   13.3340   11.3958 H           1 LGS       0.0230
     50 H28         6.5406   13.4869    9.6228 H           1 LGS       0.0230
@<TRIPOS>BOND
     1     1     2   1
     2     2     3   1
     3     2     6   1
     4     3     4   1
     5     3    12   1
     6     4     5   1
     7     5    13   1
     8     6     7   1
     9     6     8   1
    10     8     9   1
    11     8    10   1
    12    10    11   1
    13    10    12   1
    14    12    13   1
    15    13    14   2
    16    14    15   1
    17    15    16   1
    18    16    17   1
    19    17    18   1
    20    18    19   1
    21    19    20   1
    22    20    21   1
    23    21    22   1
    24     1    23   1
    25     2    24   1
    26     3    25   1
    27     4    26   1
    28     4    27   1
    29     6    28   1
    30     7    29   1
    31     8    30   1
    32     9    31   1
    33    10    32   1
    34    11    33   1
    35    15    34   1
    36    15    35   1
    37    16    36   1
    38    16    37   1
    39    17    38   1
    40    17    39   1
    41    18    40   1
    42    18    41   1
    43    19    42   1
    44    19    43   1
    45    20    44   1
    46    20    45   1
    47    21    46   1
    48    21    47   1
    49    22    48   1
    50    22    49   1
    51    22    50   1
@<TRIPOS>SUBSTRUCTURE
     1  LGS      2

