@<TRIPOS>MOLECULE
2wbg_ligand_021
    50    51
SMALL
GAST_HUCK
****
This file was generated by PARSER (from files_GN.cpp)

@<TRIPOS>ATOM
      1 O4          3.9029    4.5453   14.9078 O.3         1 LGS      -0.3867
      2 C4          2.8467    4.7032   13.9602 C.3         1 LGS       0.1103
      3 C5          3.4333    5.4209   12.7029 C.3         1 LGS       0.1113
      4 C6          4.2482    4.5328   11.7424 C.3         1 LGS       0.1120
      5 O6          3.9135    4.9471   10.4171 O.3         1 LGS      -0.2547
      6 C3          1.6247    5.4616   14.5995 C.3         1 LGS       0.1137
      7 O3          0.4632    4.6258   14.6386 O.3         1 LGS      -0.3864
      8 C2          1.2507    6.7744   13.8526 C.3         1 LGS       0.1318
      9 O2          2.2018    7.7768   14.2066 O.3         1 LGS      -0.3843
     10 C1          1.2416    6.5814   12.3070 C.3         1 LGS       0.1770
     11 O1          0.0692    5.8679   11.9212 O.3         1 LGS      -0.3666
     12 N1          2.4098    5.8814   11.8375 N.pl3       1 LGS      -0.2126
     13 C7          2.7077    5.5626   10.5605 C.2         1 LGS       0.2439
     14 N2          1.9007    5.8364    9.5113 N.2         1 LGS      -0.3607
     15 C8          2.1264    5.5482    8.1346 C.3         1 LGS      -0.0300
     16 C9          3.3310    6.3293    7.5385 C.3         1 LGS      -0.0515
     17 C10         3.3072    6.4729    5.9915 C.3         1 LGS      -0.0530
     18 C11         3.6694    5.1936    5.1865 C.3         1 LGS      -0.0531
     19 C12         5.1938    4.9811    4.9412 C.3         1 LGS      -0.0531
     20 C13         5.7698    5.5469    3.6086 C.3         1 LGS      -0.0533
     21 C14         5.9071    7.0923    3.4923 C.3         1 LGS      -0.0559
     22 C15         4.6938    7.8117    2.8570 C.3         1 LGS      -0.0653
     23 H1          3.5080    4.0593   15.6609 H           1 LGS       0.2100
     24 H2          2.5174    3.6987   13.6770 H           1 LGS       0.0645
     25 H3          4.0438    6.2747   13.0181 H           1 LGS       0.0626
     26 H4          3.9726    3.4825   11.8421 H           1 LGS       0.0660
     27 H5          5.3208    4.6383   11.9048 H           1 LGS       0.0660
     28 H6          1.8483    5.7097   15.6429 H           1 LGS       0.0647
     29 H7          0.7549    3.7818   15.0442 H           1 LGS       0.2100
     30 H8          0.2766    7.1390   14.1838 H           1 LGS       0.0669
     31 H9          1.9904    8.5527   13.6509 H           1 LGS       0.2101
     32 H10         1.2009    7.5595   11.8275 H           1 LGS       0.0908
     33 H11         0.1771    4.9634   12.2917 H           1 LGS       0.2124
     34 H12         1.2101    5.8287    7.6117 H           1 LGS       0.0282
     35 H13         2.2692    4.4726    8.0092 H           1 LGS       0.0282
     36 H14         4.2604    5.8448    7.8435 H           1 LGS       0.0266
     37 H15         3.3362    7.3353    7.9662 H           1 LGS       0.0266
     38 H16         3.9876    7.2812    5.7214 H           1 LGS       0.0265
     39 H17         2.3088    6.7927    5.6918 H           1 LGS       0.0265
     40 H18         3.1579    5.2196    4.2215 H           1 LGS       0.0265
     41 H19         3.2682    4.3238    5.7139 H           1 LGS       0.0265
     42 H20         5.3707    3.9015    4.9280 H           1 LGS       0.0265
     43 H21         5.7693    5.3800    5.7804 H           1 LGS       0.0265
     44 H22         5.1846    5.1590    2.7700 H           1 LGS       0.0265
     45 H23         6.7743    5.1262    3.5028 H           1 LGS       0.0265
     46 H24         6.7731    7.3152    2.8611 H           1 LGS       0.0263
     47 H25         6.1146    7.5250    4.4739 H           1 LGS       0.0263
     48 H26         4.8791    8.8873    2.8323 H           1 LGS       0.0230
     49 H27         3.7791    7.6340    3.4231 H           1 LGS       0.0230
     50 H28         4.5442    7.4656    1.8315 H           1 LGS       0.0230
@<TRIPOS>BOND
     1     1     2   1
     2     2     3   1
     3     2     6   1
     4     3     4   1
     5     3    12   1
     6     4     5   1
     7     5    13   1
     8     6     7   1
     9     6     8   1
    10     8     9   1
    11     8    10   1
    12    10    11   1
    13    10    12   1
    14    12    13   1
    15    13    14   2
    16    14    15   1
    17    15    16   1
    18    16    17   1
    19    17    18   1
    20    18    19   1
    21    19    20   1
    22    20    21   1
    23    21    22   1
    24     1    23   1
    25     2    24   1
    26     3    25   1
    27     4    26   1
    28     4    27   1
    29     6    28   1
    30     7    29   1
    31     8    30   1
    32     9    31   1
    33    10    32   1
    34    11    33   1
    35    15    34   1
    36    15    35   1
    37    16    36   1
    38    16    37   1
    39    17    38   1
    40    17    39   1
    41    18    40   1
    42    18    41   1
    43    19    42   1
    44    19    43   1
    45    20    44   1
    46    20    45   1
    47    21    46   1
    48    21    47   1
    49    22    48   1
    50    22    49   1
    51    22    50   1
@<TRIPOS>SUBSTRUCTURE
     1  LGS      2

