@<TRIPOS>MOLECULE
2wbg_ligand_020
    50    51
SMALL
GAST_HUCK
****
This file was generated by PARSER (from files_GN.cpp)

@<TRIPOS>ATOM
      1 O4          7.6376    2.9315    2.4408 O.3         1 LGS      -0.3867
      2 C4          6.6954    3.1328    3.4912 C.3         1 LGS       0.1103
      3 C5          7.4346    3.1443    4.8671 C.3         1 LGS       0.1113
      4 C6          8.3459    4.3656    5.1421 C.3         1 LGS       0.1120
      5 O6          8.1040    4.7771    6.4937 O.3         1 LGS      -0.2547
      6 C3          5.5260    2.0840    3.4335 C.3         1 LGS       0.1137
      7 O3          4.3643    2.6860    2.8523 O.3         1 LGS      -0.3864
      8 C2          5.1286    1.4941    4.8273 C.3         1 LGS       0.1318
      9 O2          5.9649    0.3745    5.1380 O.3         1 LGS      -0.3843
     10 C1          5.2567    2.5430    5.9747 C.3         1 LGS       0.1770
     11 O1          4.1659    3.4624    5.9009 O.3         1 LGS      -0.3666
     12 N1          6.5125    3.2598    5.9365 N.pl3       1 LGS      -0.2126
     13 C7          6.9182    4.1930    6.8216 C.2         1 LGS       0.2439
     14 N2          6.1833    4.5396    7.9037 N.2         1 LGS      -0.3607
     15 C8          6.5014    5.5821    8.8258 C.3         1 LGS      -0.0300
     16 C9          5.4035    5.7447    9.9026 C.3         1 LGS      -0.0515
     17 C10         3.9596    5.7906    9.3209 C.3         1 LGS      -0.0530
     18 C11         2.9361    6.5779   10.1928 C.3         1 LGS      -0.0531
     19 C12         1.4519    6.2399    9.8314 C.3         1 LGS      -0.0531
     20 C13         0.4291    7.3986   10.0320 C.3         1 LGS      -0.0533
     21 C14        -0.2739    7.4768   11.4197 C.3         1 LGS      -0.0559
     22 C15         0.6238    7.1579   12.6385 C.3         1 LGS      -0.0653
     23 H1          8.3198    2.3217    2.7970 H           1 LGS       0.2100
     24 H2          6.2684    4.1301    3.3457 H           1 LGS       0.0645
     25 H3          8.0110    2.2212    4.9997 H           1 LGS       0.0626
     26 H4          8.1129    5.2087    4.4839 H           1 LGS       0.0660
     27 H5          9.4025    4.1152    5.0251 H           1 LGS       0.0660
     28 H6          5.8130    1.2582    2.7733 H           1 LGS       0.0647
     29 H7          4.6656    3.1003    2.0160 H           1 LGS       0.2100
     30 H8          4.0936    1.1274    4.7867 H           1 LGS       0.0669
     31 H9          5.9740   -0.1843    4.3327 H           1 LGS       0.2101
     32 H10         5.1760    2.0120    6.9274 H           1 LGS       0.0908
     33 H11         4.2903    3.9447    5.0545 H           1 LGS       0.2124
     34 H12         6.5937    6.5256    8.2699 H           1 LGS       0.0282
     35 H13         7.4549    5.3815    9.3196 H           1 LGS       0.0282
     36 H14         5.6046    6.6696   10.4510 H           1 LGS       0.0266
     37 H15         5.4649    4.9195   10.6189 H           1 LGS       0.0266
     38 H16         3.5909    4.7633    9.1891 H           1 LGS       0.0265
     39 H17         3.9839    6.2724    8.3375 H           1 LGS       0.0265
     40 H18         3.1223    7.6489   10.0583 H           1 LGS       0.0265
     41 H19         3.1083    6.3420   11.2541 H           1 LGS       0.0265
     42 H20         1.1259    5.3670   10.4067 H           1 LGS       0.0265
     43 H21         1.3898    5.9604    8.7731 H           1 LGS       0.0265
     44 H22        -0.3635    7.2749    9.2823 H           1 LGS       0.0265
     45 H23         0.9088    8.3609    9.8208 H           1 LGS       0.0265
     46 H24        -1.1332    6.7941   11.4288 H           1 LGS       0.0263
     47 H25        -0.6675    8.4987   11.5400 H           1 LGS       0.0263
     48 H26         0.1258    7.4858   13.5608 H           1 LGS       0.0230
     49 H27         1.5872    7.6748   12.5591 H           1 LGS       0.0230
     50 H28         0.7986    6.0812   12.7085 H           1 LGS       0.0230
@<TRIPOS>BOND
     1     1     2   1
     2     2     3   1
     3     2     6   1
     4     3     4   1
     5     3    12   1
     6     4     5   1
     7     5    13   1
     8     6     7   1
     9     6     8   1
    10     8     9   1
    11     8    10   1
    12    10    11   1
    13    10    12   1
    14    12    13   1
    15    13    14   2
    16    14    15   1
    17    15    16   1
    18    16    17   1
    19    17    18   1
    20    18    19   1
    21    19    20   1
    22    20    21   1
    23    21    22   1
    24     1    23   1
    25     2    24   1
    26     3    25   1
    27     4    26   1
    28     4    27   1
    29     6    28   1
    30     7    29   1
    31     8    30   1
    32     9    31   1
    33    10    32   1
    34    11    33   1
    35    15    34   1
    36    15    35   1
    37    16    36   1
    38    16    37   1
    39    17    38   1
    40    17    39   1
    41    18    40   1
    42    18    41   1
    43    19    42   1
    44    19    43   1
    45    20    44   1
    46    20    45   1
    47    21    46   1
    48    21    47   1
    49    22    48   1
    50    22    49   1
    51    22    50   1
@<TRIPOS>SUBSTRUCTURE
     1  LGS      2

