@<TRIPOS>MOLECULE
2wbg_ligand_050
    50    51
SMALL
GAST_HUCK
****
This file was generated by PARSER (from files_GN.cpp)

@<TRIPOS>ATOM
      1 O4          2.8018   10.6057   -3.2908 O.3         1 LGS      -0.3867
      2 C4          3.7863    9.5975   -3.0447 C.3         1 LGS       0.1103
      3 C5          4.4259    9.8542   -1.6463 C.3         1 LGS       0.1113
      4 C6          3.5776    9.4766   -0.4147 C.3         1 LGS       0.1120
      5 O6          4.4981    8.9582    0.5493 O.3         1 LGS      -0.2547
      6 C3          4.8486    9.5646   -4.2060 C.3         1 LGS       0.1137
      7 O3          4.7257    8.3639   -4.9750 O.3         1 LGS      -0.3864
      8 C2          6.3313    9.6699   -3.7330 C.3         1 LGS       0.1318
      9 O2          6.6644   11.0310   -3.4673 O.3         1 LGS      -0.3843
     10 C1          6.5852    8.8256   -2.4526 C.3         1 LGS       0.1770
     11 O1          6.6393    7.4441   -2.8134 O.3         1 LGS      -0.3666
     12 N1          5.5724    9.0404   -1.4499 N.pl3       1 LGS      -0.2126
     13 C7          5.5672    8.5489   -0.1924 C.2         1 LGS       0.2439
     14 N2          6.5472    7.7700    0.3181 N.2         1 LGS      -0.3607
     15 C8          6.6103    7.3348    1.6677 C.3         1 LGS      -0.0300
     16 C9          7.8483    6.4379    1.9574 C.3         1 LGS      -0.0515
     17 C10         7.5659    4.9135    2.0773 C.3         1 LGS      -0.0530
     18 C11         6.4998    4.4591    3.1228 C.3         1 LGS      -0.0531
     19 C12         6.4895    5.2133    4.4818 C.3         1 LGS      -0.0531
     20 C13         5.3248    4.7875    5.4140 C.3         1 LGS      -0.0533
     21 C14         5.1660    5.6923    6.6675 C.3         1 LGS      -0.0559
     22 C15         4.3468    6.9822    6.4237 C.3         1 LGS      -0.0653
     23 H1          2.2211   10.6212   -2.4974 H           1 LGS       0.2100
     24 H2          3.2617    8.6360   -3.0209 H           1 LGS       0.0645
     25 H3          4.7273   10.9021   -1.5737 H           1 LGS       0.0626
     26 H4          2.8469    8.7004   -0.6462 H           1 LGS       0.0660
     27 H5          3.0560   10.3401   -0.0054 H           1 LGS       0.0660
     28 H6          4.6576   10.3899   -4.8989 H           1 LGS       0.0647
     29 H7          3.8379    8.4070   -5.3819 H           1 LGS       0.2100
     30 H8          7.0036    9.3340   -4.5232 H           1 LGS       0.0669
     31 H9          6.5626   11.4999   -4.3220 H           1 LGS       0.2101
     32 H10         7.5599    9.0948   -2.0396 H           1 LGS       0.0908
     33 H11         5.9478    6.9802   -2.2941 H           1 LGS       0.2124
     34 H12         5.6834    6.8159    1.9087 H           1 LGS       0.0282
     35 H13         6.6604    8.2235    2.3019 H           1 LGS       0.0282
     36 H14         8.3092    6.7693    2.8915 H           1 LGS       0.0266
     37 H15         8.6008    6.5913    1.1789 H           1 LGS       0.0266
     38 H16         8.5136    4.4254    2.3196 H           1 LGS       0.0265
     39 H17         7.2626    4.5475    1.0938 H           1 LGS       0.0265
     40 H18         6.6579    3.3960    3.3194 H           1 LGS       0.0265
     41 H19         5.5137    4.5548    2.6660 H           1 LGS       0.0265
     42 H20         6.4012    6.2796    4.2985 H           1 LGS       0.0265
     43 H21         7.4374    5.0418    4.9937 H           1 LGS       0.0265
     44 H22         5.5010    3.7629    5.7405 H           1 LGS       0.0265
     45 H23         4.3868    4.7873    4.8580 H           1 LGS       0.0265
     46 H24         6.1488    5.9691    7.0513 H           1 LGS       0.0263
     47 H25         4.6611    5.1249    7.4515 H           1 LGS       0.0263
     48 H26         4.2595    7.5469    7.3550 H           1 LGS       0.0230
     49 H27         3.3402    6.7385    6.0804 H           1 LGS       0.0230
     50 H28         4.8239    7.6221    5.6819 H           1 LGS       0.0230
@<TRIPOS>BOND
     1     1     2   1
     2     2     3   1
     3     2     6   1
     4     3     4   1
     5     3    12   1
     6     4     5   1
     7     5    13   1
     8     6     7   1
     9     6     8   1
    10     8     9   1
    11     8    10   1
    12    10    11   1
    13    10    12   1
    14    12    13   1
    15    13    14   2
    16    14    15   1
    17    15    16   1
    18    16    17   1
    19    17    18   1
    20    18    19   1
    21    19    20   1
    22    20    21   1
    23    21    22   1
    24     1    23   1
    25     2    24   1
    26     3    25   1
    27     4    26   1
    28     4    27   1
    29     6    28   1
    30     7    29   1
    31     8    30   1
    32     9    31   1
    33    10    32   1
    34    11    33   1
    35    15    34   1
    36    15    35   1
    37    16    36   1
    38    16    37   1
    39    17    38   1
    40    17    39   1
    41    18    40   1
    42    18    41   1
    43    19    42   1
    44    19    43   1
    45    20    44   1
    46    20    45   1
    47    21    46   1
    48    21    47   1
    49    22    48   1
    50    22    49   1
    51    22    50   1
@<TRIPOS>SUBSTRUCTURE
     1  LGS      2

