@<TRIPOS>MOLECULE
2wbg_ligand_046
    50    51
SMALL
GAST_HUCK
****
This file was generated by PARSER (from files_GN.cpp)

@<TRIPOS>ATOM
      1 O4          1.4456    7.3841   12.3508 O.3         1 LGS      -0.3867
      2 C4          2.3673    6.4205   11.8458 C.3         1 LGS       0.1103
      3 C5          2.5625    6.6008   10.3140 C.3         1 LGS       0.1113
      4 C6          3.3540    7.8534    9.9053 C.3         1 LGS       0.1120
      5 O6          4.0048    7.4837    8.6914 O.3         1 LGS      -0.2547
      6 C3          1.8157    5.0016   12.1322 C.3         1 LGS       0.1137
      7 O3          1.7109    4.8058   13.5427 O.3         1 LGS      -0.3864
      8 C2          2.7487    3.9311   11.5077 C.3         1 LGS       0.1318
      9 O2          2.2061    2.6257   11.7114 O.3         1 LGS      -0.3843
     10 C1          3.0277    4.1811    9.9905 C.3         1 LGS       0.1770
     11 O1          4.0287    3.2505    9.6033 O.3         1 LGS      -0.3666
     12 N1          3.3413    5.5682    9.7116 N.pl3       1 LGS      -0.2126
     13 C7          4.0933    6.1271    8.7294 C.2         1 LGS       0.2439
     14 N2          4.8631    5.6266    7.7399 N.2         1 LGS      -0.3607
     15 C8          5.2739    4.3391    7.2864 C.3         1 LGS      -0.0300
     16 C9          6.1697    4.4914    6.0310 C.3         1 LGS      -0.0515
     17 C10         6.8926    3.1817    5.6004 C.3         1 LGS      -0.0530
     18 C11         5.9905    2.1323    4.8804 C.3         1 LGS      -0.0531
     19 C12         6.8163    1.1228    4.0150 C.3         1 LGS      -0.0531
     20 C13         7.1325    1.5578    2.5500 C.3         1 LGS      -0.0533
     21 C14         7.4362    3.0699    2.3179 C.3         1 LGS      -0.0559
     22 C15         7.6709    3.4095    0.8304 C.3         1 LGS      -0.0653
     23 H1          1.8960    8.2467   12.2446 H           1 LGS       0.2100
     24 H2          3.3224    6.5434   12.3666 H           1 LGS       0.0645
     25 H3          1.5769    6.6202    9.8303 H           1 LGS       0.0626
     26 H4          4.1082    8.1125   10.6549 H           1 LGS       0.0660
     27 H5          2.6954    8.7116    9.7546 H           1 LGS       0.0660
     28 H6          0.8189    4.9115   11.6951 H           1 LGS       0.0647
     29 H7          1.2387    3.9540   13.6375 H           1 LGS       0.2100
     30 H8          3.6980    3.9695   12.0509 H           1 LGS       0.0669
     31 H9          1.5716    2.4834   10.9781 H           1 LGS       0.2101
     32 H10         2.1296    3.9372    9.4196 H           1 LGS       0.0908
     33 H11         4.6458    3.1910   10.3584 H           1 LGS       0.2124
     34 H12         4.3989    3.7255    7.0377 H           1 LGS       0.0282
     35 H13         5.8696    3.8553    8.0684 H           1 LGS       0.0282
     36 H14         6.9504    5.2284    6.2615 H           1 LGS       0.0266
     37 H15         5.5771    4.8806    5.1911 H           1 LGS       0.0266
     38 H16         7.3478    2.7011    6.4777 H           1 LGS       0.0265
     39 H17         7.7070    3.4730    4.9343 H           1 LGS       0.0265
     40 H18         5.2436    2.6185    4.2423 H           1 LGS       0.0265
     41 H19         5.4385    1.5665    5.6391 H           1 LGS       0.0265
     42 H20         6.2587    0.1775    3.9510 H           1 LGS       0.0265
     43 H21         7.7634    0.8845    4.5137 H           1 LGS       0.0265
     44 H22         6.2798    1.2738    1.9120 H           1 LGS       0.0265
     45 H23         8.0017    0.9755    2.2128 H           1 LGS       0.0265
     46 H24         8.3304    3.3515    2.8763 H           1 LGS       0.0263
     47 H25         6.5901    3.6693    2.6743 H           1 LGS       0.0263
     48 H26         7.6649    4.4983    0.7067 H           1 LGS       0.0230
     49 H27         6.8782    2.9847    0.2044 H           1 LGS       0.0230
     50 H28         8.6397    3.0107    0.5018 H           1 LGS       0.0230
@<TRIPOS>BOND
     1     1     2   1
     2     2     3   1
     3     2     6   1
     4     3     4   1
     5     3    12   1
     6     4     5   1
     7     5    13   1
     8     6     7   1
     9     6     8   1
    10     8     9   1
    11     8    10   1
    12    10    11   1
    13    10    12   1
    14    12    13   1
    15    13    14   2
    16    14    15   1
    17    15    16   1
    18    16    17   1
    19    17    18   1
    20    18    19   1
    21    19    20   1
    22    20    21   1
    23    21    22   1
    24     1    23   1
    25     2    24   1
    26     3    25   1
    27     4    26   1
    28     4    27   1
    29     6    28   1
    30     7    29   1
    31     8    30   1
    32     9    31   1
    33    10    32   1
    34    11    33   1
    35    15    34   1
    36    15    35   1
    37    16    36   1
    38    16    37   1
    39    17    38   1
    40    17    39   1
    41    18    40   1
    42    18    41   1
    43    19    42   1
    44    19    43   1
    45    20    44   1
    46    20    45   1
    47    21    46   1
    48    21    47   1
    49    22    48   1
    50    22    49   1
    51    22    50   1
@<TRIPOS>SUBSTRUCTURE
     1  LGS      2

