@<TRIPOS>MOLECULE
2wbg_ligand_048
    50    51
SMALL
GAST_HUCK
****
This file was generated by PARSER (from files_GN.cpp)

@<TRIPOS>ATOM
      1 O4          7.6812    8.4994   10.2991 O.3         1 LGS      -0.3867
      2 C4          6.6257    7.5620   10.1045 C.3         1 LGS       0.1103
      3 C5          6.2385    6.8627   11.4407 C.3         1 LGS       0.1113
      4 C6          5.5124    7.7613   12.4608 C.3         1 LGS       0.1120
      5 O6          4.5398    6.9307   13.0993 O.3         1 LGS      -0.2547
      6 C3          7.0517    6.4902    9.0645 C.3         1 LGS       0.1137
      7 O3          7.3527    7.1079    7.8122 O.3         1 LGS      -0.3864
      8 C2          5.9070    5.4533    8.8738 C.3         1 LGS       0.1318
      9 O2          6.3180    4.4177    7.9752 O.3         1 LGS      -0.3843
     10 C1          5.4718    4.8281   10.2319 C.3         1 LGS       0.1770
     11 O1          4.3183    4.0267    9.9815 O.3         1 LGS      -0.3666
     12 N1          5.2761    5.8379   11.2465 N.pl3       1 LGS      -0.2126
     13 C7          4.3377    5.9116   12.2179 C.2         1 LGS       0.2439
     14 N2          3.2727    5.0898   12.3298 N.2         1 LGS      -0.3607
     15 C8          2.2297    5.0805   13.3022 C.3         1 LGS      -0.0300
     16 C9          0.9026    5.5856   12.6755 C.3         1 LGS      -0.0515
     17 C10         0.8228    7.1392   12.5614 C.3         1 LGS      -0.0530
     18 C11         0.0385    7.6651   11.3216 C.3         1 LGS      -0.0531
     19 C12         0.9036    7.9684   10.0609 C.3         1 LGS      -0.0531
     20 C13         1.9702    6.9033    9.6564 C.3         1 LGS      -0.0533
     21 C14         1.5717    6.0055    8.4543 C.3         1 LGS      -0.0559
     22 C15         2.3914    4.6924    8.3609 C.3         1 LGS      -0.0653
     23 H1          7.2946    9.2174   10.8431 H           1 LGS       0.2100
     24 H2          5.7621    8.1062    9.7100 H           1 LGS       0.0645
     25 H3          7.1242    6.4147   11.9007 H           1 LGS       0.0626
     26 H4          4.9909    8.5868   11.9709 H           1 LGS       0.0660
     27 H5          6.2058    8.1689   13.1990 H           1 LGS       0.0660
     28 H6          7.9543    5.9742    9.4091 H           1 LGS       0.0647
     29 H7          8.1709    7.6234    7.9684 H           1 LGS       0.2100
     30 H8          5.0446    5.9582    8.4200 H           1 LGS       0.0669
     31 H9          6.4278    4.8542    7.1049 H           1 LGS       0.2101
     32 H10         6.2699    4.1681   10.5835 H           1 LGS       0.0908
     33 H11         4.3468    3.3128   10.6422 H           1 LGS       0.2124
     34 H12         2.4850    5.6775   14.1824 H           1 LGS       0.0282
     35 H13         2.1026    4.0453   13.6255 H           1 LGS       0.0282
     36 H14         0.0687    5.2439   13.2956 H           1 LGS       0.0266
     37 H15         0.7723    5.1129   11.6981 H           1 LGS       0.0266
     38 H16         1.8214    7.5834   12.5592 H           1 LGS       0.0265
     39 H17         0.3261    7.5135   13.4665 H           1 LGS       0.0265
     40 H18        -0.4366    8.6107   11.6051 H           1 LGS       0.0265
     41 H19        -0.7688    6.9783   11.0625 H           1 LGS       0.0265
     42 H20         1.4169    8.9192   10.2291 H           1 LGS       0.0265
     43 H21         0.2197    8.1211    9.2241 H           1 LGS       0.0265
     44 H22         2.1894    6.2774   10.5151 H           1 LGS       0.0265
     45 H23         2.9030    7.4170    9.3954 H           1 LGS       0.0265
     46 H24         1.7126    6.5638    7.5221 H           1 LGS       0.0263
     47 H25         0.5146    5.7437    8.5384 H           1 LGS       0.0263
     48 H26         2.1818    4.1950    7.4136 H           1 LGS       0.0230
     49 H27         2.1106    4.0237    9.1788 H           1 LGS       0.0230
     50 H28         3.4667    4.8775    8.4109 H           1 LGS       0.0230
@<TRIPOS>BOND
     1     1     2   1
     2     2     3   1
     3     2     6   1
     4     3     4   1
     5     3    12   1
     6     4     5   1
     7     5    13   1
     8     6     7   1
     9     6     8   1
    10     8     9   1
    11     8    10   1
    12    10    11   1
    13    10    12   1
    14    12    13   1
    15    13    14   2
    16    14    15   1
    17    15    16   1
    18    16    17   1
    19    17    18   1
    20    18    19   1
    21    19    20   1
    22    20    21   1
    23    21    22   1
    24     1    23   1
    25     2    24   1
    26     3    25   1
    27     4    26   1
    28     4    27   1
    29     6    28   1
    30     7    29   1
    31     8    30   1
    32     9    31   1
    33    10    32   1
    34    11    33   1
    35    15    34   1
    36    15    35   1
    37    16    36   1
    38    16    37   1
    39    17    38   1
    40    17    39   1
    41    18    40   1
    42    18    41   1
    43    19    42   1
    44    19    43   1
    45    20    44   1
    46    20    45   1
    47    21    46   1
    48    21    47   1
    49    22    48   1
    50    22    49   1
    51    22    50   1
@<TRIPOS>SUBSTRUCTURE
     1  LGS      2

