@<TRIPOS>MOLECULE
2wbg_ligand_059
    50    51
SMALL
GAST_HUCK
****
This file was generated by PARSER (from files_GN.cpp)

@<TRIPOS>ATOM
      1 O4          5.9729    3.2190    7.8189 O.3         1 LGS      -0.3867
      2 C4          5.5786    4.4063    8.5059 C.3         1 LGS       0.1103
      3 C5          4.2264    4.9208    7.9227 C.3         1 LGS       0.1113
      4 C6          2.9784    4.0839    8.2917 C.3         1 LGS       0.1120
      5 O6          1.9485    5.0159    8.6467 O.3         1 LGS      -0.2547
      6 C3          6.6697    5.5094    8.3778 C.3         1 LGS       0.1137
      7 O3          7.8933    5.0942    8.9765 O.3         1 LGS      -0.3864
      8 C2          6.1848    6.8343    9.0389 C.3         1 LGS       0.1318
      9 O2          7.1658    7.8571    8.8635 O.3         1 LGS      -0.3843
     10 C1          4.8321    7.2837    8.4247 C.3         1 LGS       0.1770
     11 O1          4.4188    8.4678    9.1052 O.3         1 LGS      -0.3666
     12 N1          3.8803    6.1929    8.4594 N.pl3       1 LGS      -0.2126
     13 C7          2.5914    6.1907    8.8630 C.2         1 LGS       0.2439
     14 N2          1.9750    7.2709    9.3777 N.2         1 LGS      -0.3607
     15 C8          0.6236    7.4880    9.7471 C.3         1 LGS      -0.0300
     16 C9          0.5009    7.7228   11.2752 C.3         1 LGS      -0.0515
     17 C10         0.1955    6.4163   12.0537 C.3         1 LGS      -0.0530
     18 C11         0.5920    6.4124   13.5552 C.3         1 LGS      -0.0531
     19 C12         2.0968    6.6369   13.9227 C.3         1 LGS      -0.0531
     20 C13         3.2128    6.1546   12.9428 C.3         1 LGS      -0.0533
     21 C14         3.2216    4.6662   12.4794 C.3         1 LGS      -0.0559
     22 C15         2.7566    3.6479   13.5330 C.3         1 LGS      -0.0653
     23 H1          6.7042    2.8422    8.3503 H           1 LGS       0.2100
     24 H2          5.4509    4.1552    9.5619 H           1 LGS       0.0645
     25 H3          4.3052    5.0146    6.8329 H           1 LGS       0.0626
     26 H4          3.1722    3.4290    9.1450 H           1 LGS       0.0660
     27 H5          2.6575    3.4663    7.4497 H           1 LGS       0.0660
     28 H6          6.8708    5.6992    7.3202 H           1 LGS       0.0647
     29 H7          8.3133    4.5081    8.3118 H           1 LGS       0.2100
     30 H8          6.0526    6.6759   10.1149 H           1 LGS       0.0669
     31 H9          7.9523    7.5534    9.3642 H           1 LGS       0.2101
     32 H10         4.9909    7.5560    7.3769 H           1 LGS       0.0908
     33 H11         3.6103    8.7647    8.6381 H           1 LGS       0.2124
     34 H12        -0.0110    6.6614    9.4283 H           1 LGS       0.0282
     35 H13         0.2947    8.3779    9.2273 H           1 LGS       0.0282
     36 H14        -0.3073    8.4372   11.4731 H           1 LGS       0.0266
     37 H15         1.4257    8.1688   11.6464 H           1 LGS       0.0266
     38 H16         0.6770    5.5675   11.5723 H           1 LGS       0.0265
     39 H17        -0.8862    6.2423   11.9935 H           1 LGS       0.0265
     40 H18         0.2810    5.4518   13.9764 H           1 LGS       0.0265
     41 H19         0.0151    7.1908   14.0647 H           1 LGS       0.0265
     42 H20         2.2629    6.1484   14.8883 H           1 LGS       0.0265
     43 H21         2.2476    7.7128   14.0864 H           1 LGS       0.0265
     44 H22         4.1704    6.3443   13.4421 H           1 LGS       0.0265
     45 H23         3.1859    6.7955   12.0621 H           1 LGS       0.0265
     46 H24         4.2442    4.4204   12.1942 H           1 LGS       0.0263
     47 H25         2.6075    4.5448   11.5860 H           1 LGS       0.0263
     48 H26         2.9033    2.6296   13.1609 H           1 LGS       0.0230
     49 H27         1.6963    3.7793   13.7476 H           1 LGS       0.0230
     50 H28         3.3235    3.7771   14.4581 H           1 LGS       0.0230
@<TRIPOS>BOND
     1     1     2   1
     2     2     3   1
     3     2     6   1
     4     3     4   1
     5     3    12   1
     6     4     5   1
     7     5    13   1
     8     6     7   1
     9     6     8   1
    10     8     9   1
    11     8    10   1
    12    10    11   1
    13    10    12   1
    14    12    13   1
    15    13    14   2
    16    14    15   1
    17    15    16   1
    18    16    17   1
    19    17    18   1
    20    18    19   1
    21    19    20   1
    22    20    21   1
    23    21    22   1
    24     1    23   1
    25     2    24   1
    26     3    25   1
    27     4    26   1
    28     4    27   1
    29     6    28   1
    30     7    29   1
    31     8    30   1
    32     9    31   1
    33    10    32   1
    34    11    33   1
    35    15    34   1
    36    15    35   1
    37    16    36   1
    38    16    37   1
    39    17    38   1
    40    17    39   1
    41    18    40   1
    42    18    41   1
    43    19    42   1
    44    19    43   1
    45    20    44   1
    46    20    45   1
    47    21    46   1
    48    21    47   1
    49    22    48   1
    50    22    49   1
    51    22    50   1
@<TRIPOS>SUBSTRUCTURE
     1  LGS      2

