@<TRIPOS>MOLECULE
2wbg_ligand_002
    50    51
SMALL
GAST_HUCK
****
This file was generated by PARSER (from files_GN.cpp)

@<TRIPOS>ATOM
      1 O4          0.6749    7.3358   14.3229 O.3         1 LGS      -0.3867
      2 C4          1.4491    6.6697   13.3229 C.3         1 LGS       0.1103
      3 C5          0.5948    6.3145   12.0652 C.3         1 LGS       0.1113
      4 C6          0.0473    7.5298   11.2857 C.3         1 LGS       0.1120
      5 O6          0.2725    7.2344    9.9087 O.3         1 LGS      -0.2547
      6 C3          2.0749    5.3588   13.8810 C.3         1 LGS       0.1137
      7 O3          2.8788    5.6404   15.0305 O.3         1 LGS      -0.3864
      8 C2          2.9402    4.6832   12.7738 C.3         1 LGS       0.1318
      9 O2          3.4674    3.4610   13.2980 O.3         1 LGS      -0.3843
     10 C1          2.1148    4.4483   11.4631 C.3         1 LGS       0.1770
     11 O1          2.9810    3.9538   10.4413 O.3         1 LGS      -0.3666
     12 N1          1.3937    5.6482   11.0846 N.pl3       1 LGS      -0.2126
     13 C7          1.2360    6.2720    9.8872 C.2         1 LGS       0.2439
     14 N2          1.7996    6.1401    8.6638 N.2         1 LGS      -0.3607
     15 C8          2.8052    5.4567    7.9234 C.3         1 LGS      -0.0300
     16 C9          4.2677    5.8647    8.2667 C.3         1 LGS      -0.0515
     17 C10         4.6229    7.3670    8.0217 C.3         1 LGS      -0.0530
     18 C11         4.1287    8.3515    9.1230 C.3         1 LGS      -0.0531
     19 C12         4.9688    8.3228   10.4349 C.3         1 LGS      -0.0531
     20 C13         5.9943    9.4954   10.5876 C.3         1 LGS      -0.0533
     21 C14         5.5213   10.6617   11.4992 C.3         1 LGS      -0.0559
     22 C15         4.5964   11.6951   10.8139 C.3         1 LGS      -0.0653
     23 H1          0.3700    8.1632   13.8990 H           1 LGS       0.2100
     24 H2          2.2556    7.3478   13.0333 H           1 LGS       0.0645
     25 H3         -0.2430    5.6635   12.3574 H           1 LGS       0.0626
     26 H4          0.5842    8.4502   11.5356 H           1 LGS       0.0660
     27 H5         -1.0207    7.6784   11.4766 H           1 LGS       0.0660
     28 H6          1.2701    4.6745   14.1872 H           1 LGS       0.0647
     29 H7          2.8094    4.8429   15.6067 H           1 LGS       0.2100
     30 H8          3.7859    5.3474   12.5461 H           1 LGS       0.0669
     31 H9          4.3926    3.4276   12.9689 H           1 LGS       0.2101
     32 H10         1.3746    3.6778   11.6657 H           1 LGS       0.0908
     33 H11         3.4863    3.2105   10.8621 H           1 LGS       0.2124
     34 H12         2.6269    5.6826    6.8723 H           1 LGS       0.0282
     35 H13         2.6724    4.3784    8.0382 H           1 LGS       0.0282
     36 H14         4.9299    5.2602    7.6390 H           1 LGS       0.0266
     37 H15         4.4852    5.5840    9.2981 H           1 LGS       0.0266
     38 H16         4.2169    7.6758    7.0533 H           1 LGS       0.0265
     39 H17         5.7076    7.4656    7.9443 H           1 LGS       0.0265
     40 H18         3.0886    8.1313    9.3622 H           1 LGS       0.0265
     41 H19         4.1362    9.3673    8.7134 H           1 LGS       0.0265
     42 H20         5.5098    7.3763   10.4972 H           1 LGS       0.0265
     43 H21         4.2846    8.3170   11.2887 H           1 LGS       0.0265
     44 H22         6.2699    9.8963    9.6084 H           1 LGS       0.0265
     45 H23         6.9149    9.0923   11.0244 H           1 LGS       0.0265
     46 H24         6.4037   11.1947   11.8687 H           1 LGS       0.0263
     47 H25         5.0014   10.2484   12.3666 H           1 LGS       0.0263
     48 H26         4.2568   12.4262   11.5492 H           1 LGS       0.0230
     49 H27         3.7180   11.2138   10.3832 H           1 LGS       0.0230
     50 H28         5.1360   12.2205   10.0239 H           1 LGS       0.0230
@<TRIPOS>BOND
     1     1     2   1
     2     2     3   1
     3     2     6   1
     4     3     4   1
     5     3    12   1
     6     4     5   1
     7     5    13   1
     8     6     7   1
     9     6     8   1
    10     8     9   1
    11     8    10   1
    12    10    11   1
    13    10    12   1
    14    12    13   1
    15    13    14   2
    16    14    15   1
    17    15    16   1
    18    16    17   1
    19    17    18   1
    20    18    19   1
    21    19    20   1
    22    20    21   1
    23    21    22   1
    24     1    23   1
    25     2    24   1
    26     3    25   1
    27     4    26   1
    28     4    27   1
    29     6    28   1
    30     7    29   1
    31     8    30   1
    32     9    31   1
    33    10    32   1
    34    11    33   1
    35    15    34   1
    36    15    35   1
    37    16    36   1
    38    16    37   1
    39    17    38   1
    40    17    39   1
    41    18    40   1
    42    18    41   1
    43    19    42   1
    44    19    43   1
    45    20    44   1
    46    20    45   1
    47    21    46   1
    48    21    47   1
    49    22    48   1
    50    22    49   1
    51    22    50   1
@<TRIPOS>SUBSTRUCTURE
     1  LGS      2

