@<TRIPOS>MOLECULE
2wbg_ligand_031
    50    51
SMALL
GAST_HUCK
****
This file was generated by PARSER (from files_GN.cpp)

@<TRIPOS>ATOM
      1 O4          1.9580    5.5102    3.1810 O.3         1 LGS      -0.3867
      2 C4          2.6224    4.6477    4.1007 C.3         1 LGS       0.1103
      3 C5          3.9486    5.3062    4.5774 C.3         1 LGS       0.1113
      4 C6          3.8159    6.5709    5.4561 C.3         1 LGS       0.1120
      5 O6          4.7815    6.4365    6.5053 O.3         1 LGS      -0.2547
      6 C3          2.8655    3.2374    3.4600 C.3         1 LGS       0.1137
      7 O3          1.8094    2.3560    3.8573 O.3         1 LGS      -0.3864
      8 C2          4.2579    2.6069    3.8080 C.3         1 LGS       0.1318
      9 O2          5.2502    3.0432    2.8726 O.3         1 LGS      -0.3843
     10 C1          4.7551    3.0085    5.2263 C.3         1 LGS       0.1770
     11 O1          4.0018    2.3085    6.2140 O.3         1 LGS      -0.3666
     12 N1          4.6408    4.4309    5.4496 N.pl3       1 LGS      -0.2126
     13 C7          5.0766    5.1076    6.5288 C.2         1 LGS       0.2439
     14 N2          5.7544    4.5269    7.5417 N.2         1 LGS      -0.3607
     15 C8          6.2340    5.1498    8.7309 C.3         1 LGS      -0.0300
     16 C9          5.5714    4.4886    9.9656 C.3         1 LGS      -0.0515
     17 C10         5.8833    5.2103   11.3143 C.3         1 LGS      -0.0530
     18 C11         4.6791    5.9491   11.9823 C.3         1 LGS      -0.0531
     19 C12         3.8054    5.1033   12.9697 C.3         1 LGS      -0.0531
     20 C13         2.4488    4.5531   12.4389 C.3         1 LGS      -0.0533
     21 C14         1.4313    5.6315   11.9540 C.3         1 LGS      -0.0559
     22 C15         0.3748    6.0351   13.0146 C.3         1 LGS      -0.0653
     23 H1          1.6349    6.2680    3.7128 H           1 LGS       0.2100
     24 H2          1.9668    4.5315    4.9701 H           1 LGS       0.0645
     25 H3          4.5822    5.5270    3.7139 H           1 LGS       0.0626
     26 H4          2.8199    6.6561    5.9042 H           1 LGS       0.0660
     27 H5          4.0186    7.4772    4.8812 H           1 LGS       0.0660
     28 H6          2.7925    3.3184    2.3710 H           1 LGS       0.0647
     29 H7          2.1680    1.4413    3.7835 H           1 LGS       0.2100
     30 H8          4.2108    1.5179    3.7255 H           1 LGS       0.0669
     31 H9          4.7770    3.2193    2.0306 H           1 LGS       0.2101
     32 H10         5.8009    2.7054    5.3296 H           1 LGS       0.0908
     33 H11         3.0852    2.6453    6.1323 H           1 LGS       0.2124
     34 H12         6.0278    6.2265    8.7374 H           1 LGS       0.0282
     35 H13         7.3194    5.0079    8.7763 H           1 LGS       0.0282
     36 H14         5.9215    3.4543   10.0223 H           1 LGS       0.0266
     37 H15         4.4961    4.4596    9.7866 H           1 LGS       0.0266
     38 H16         6.6761    5.9459   11.1537 H           1 LGS       0.0265
     39 H17         6.2853    4.4847   12.0179 H           1 LGS       0.0265
     40 H18         4.0494    6.4075   11.2049 H           1 LGS       0.0265
     41 H19         5.0944    6.7777   12.5634 H           1 LGS       0.0265
     42 H20         3.5931    5.7148   13.8490 H           1 LGS       0.0265
     43 H21         4.3979    4.2555   13.3214 H           1 LGS       0.0265
     44 H22         1.9806    3.9717   13.2411 H           1 LGS       0.0265
     45 H23         2.6393    3.8476   11.6298 H           1 LGS       0.0265
     46 H24         0.9001    5.2313   11.0849 H           1 LGS       0.0263
     47 H25         1.9634    6.5285   11.6252 H           1 LGS       0.0263
     48 H26        -0.2787    6.8061   12.5963 H           1 LGS       0.0230
     49 H27         0.8552    6.4322   13.9092 H           1 LGS       0.0230
     50 H28        -0.2386    5.1716   13.2849 H           1 LGS       0.0230
@<TRIPOS>BOND
     1     1     2   1
     2     2     3   1
     3     2     6   1
     4     3     4   1
     5     3    12   1
     6     4     5   1
     7     5    13   1
     8     6     7   1
     9     6     8   1
    10     8     9   1
    11     8    10   1
    12    10    11   1
    13    10    12   1
    14    12    13   1
    15    13    14   2
    16    14    15   1
    17    15    16   1
    18    16    17   1
    19    17    18   1
    20    18    19   1
    21    19    20   1
    22    20    21   1
    23    21    22   1
    24     1    23   1
    25     2    24   1
    26     3    25   1
    27     4    26   1
    28     4    27   1
    29     6    28   1
    30     7    29   1
    31     8    30   1
    32     9    31   1
    33    10    32   1
    34    11    33   1
    35    15    34   1
    36    15    35   1
    37    16    36   1
    38    16    37   1
    39    17    38   1
    40    17    39   1
    41    18    40   1
    42    18    41   1
    43    19    42   1
    44    19    43   1
    45    20    44   1
    46    20    45   1
    47    21    46   1
    48    21    47   1
    49    22    48   1
    50    22    49   1
    51    22    50   1
@<TRIPOS>SUBSTRUCTURE
     1  LGS      2

