@<TRIPOS>MOLECULE
2wbg_ligand_022
    50    51
SMALL
GAST_HUCK
****
This file was generated by PARSER (from files_GN.cpp)

@<TRIPOS>ATOM
      1 O4         -0.7738    6.6094   11.6918 O.3         1 LGS      -0.3867
      2 C4          0.6347    6.7808   11.8500 C.3         1 LGS       0.1103
      3 C5          1.4174    6.0255   10.7415 C.3         1 LGS       0.1113
      4 C6          1.2293    6.5464    9.3004 C.3         1 LGS       0.1120
      5 O6          2.5141    6.4641    8.6762 O.3         1 LGS      -0.2547
      6 C3          1.0659    6.3252   13.2818 C.3         1 LGS       0.1137
      7 O3          0.9183    7.4053   14.2072 O.3         1 LGS      -0.3864
      8 C2          2.5093    5.7146   13.3596 C.3         1 LGS       0.1318
      9 O2          2.4483    4.2892   13.3897 O.3         1 LGS      -0.3843
     10 C1          3.4595    6.1633   12.1951 C.3         1 LGS       0.1770
     11 O1          3.9950    7.4535   12.4758 O.3         1 LGS      -0.3666
     12 N1          2.8097    6.2101   10.9088 N.pl3       1 LGS      -0.2126
     13 C7          3.3902    6.4707    9.7171 C.2         1 LGS       0.2439
     14 N2          4.7185    6.6590    9.5544 N.2         1 LGS      -0.3607
     15 C8          5.4638    6.8026    8.3506 C.3         1 LGS      -0.0300
     16 C9          6.2642    8.1369    8.2985 C.3         1 LGS      -0.0515
     17 C10         5.4249    9.3515    7.8170 C.3         1 LGS      -0.0530
     18 C11         6.1878   10.6932    8.0152 C.3         1 LGS      -0.0531
     19 C12         5.3504   11.9362    7.6052 C.3         1 LGS      -0.0531
     20 C13         6.2248   13.0582    6.9734 C.3         1 LGS      -0.0533
     21 C14         5.4120   14.0711    6.1228 C.3         1 LGS      -0.0559
     22 C15         6.2834   15.2304    5.5774 C.3         1 LGS      -0.0653
     23 H1         -0.9853    6.9906   10.8143 H           1 LGS       0.2100
     24 H2          0.8429    7.8508   11.7419 H           1 LGS       0.0645
     25 H3          1.1905    4.9543   10.7865 H           1 LGS       0.0626
     26 H4          0.8972    7.5909    9.2915 H           1 LGS       0.0660
     27 H5          0.5023    5.9467    8.7517 H           1 LGS       0.0660
     28 H6          0.3674    5.5638   13.6356 H           1 LGS       0.0647
     29 H7          1.1842    8.2266   13.7323 H           1 LGS       0.2100
     30 H8          2.9784    5.9904   14.3019 H           1 LGS       0.0669
     31 H9          1.6115    4.0226   12.9441 H           1 LGS       0.2101
     32 H10         4.3041    5.4650   12.1449 H           1 LGS       0.0908
     33 H11         3.2589    8.0883   12.3451 H           1 LGS       0.2124
     34 H12         4.8358    6.7103    7.4668 H           1 LGS       0.0282
     35 H13         6.1787    5.9791    8.3320 H           1 LGS       0.0282
     36 H14         7.0982    8.0083    7.6022 H           1 LGS       0.0266
     37 H15         6.6854    8.3433    9.2836 H           1 LGS       0.0266
     38 H16         4.4781    9.3838    8.3610 H           1 LGS       0.0265
     39 H17         5.2066    9.2224    6.7524 H           1 LGS       0.0265
     40 H18         7.0915   10.6619    7.4041 H           1 LGS       0.0265
     41 H19         6.4844   10.7854    9.0607 H           1 LGS       0.0265
     42 H20         4.8357   12.3332    8.4797 H           1 LGS       0.0265
     43 H21         4.5985   11.6147    6.8832 H           1 LGS       0.0265
     44 H22         6.9806   12.5939    6.3341 H           1 LGS       0.0265
     45 H23         6.7483   13.5959    7.7703 H           1 LGS       0.0265
     46 H24         4.6001   14.4871    6.7204 H           1 LGS       0.0263
     47 H25         4.9775   13.5625    5.2645 H           1 LGS       0.0263
     48 H26         5.6720   15.9059    4.9763 H           1 LGS       0.0230
     49 H27         7.0811   14.8362    4.9432 H           1 LGS       0.0230
     50 H28         6.7308   15.7976    6.3973 H           1 LGS       0.0230
@<TRIPOS>BOND
     1     1     2   1
     2     2     3   1
     3     2     6   1
     4     3     4   1
     5     3    12   1
     6     4     5   1
     7     5    13   1
     8     6     7   1
     9     6     8   1
    10     8     9   1
    11     8    10   1
    12    10    11   1
    13    10    12   1
    14    12    13   1
    15    13    14   2
    16    14    15   1
    17    15    16   1
    18    16    17   1
    19    17    18   1
    20    18    19   1
    21    19    20   1
    22    20    21   1
    23    21    22   1
    24     1    23   1
    25     2    24   1
    26     3    25   1
    27     4    26   1
    28     4    27   1
    29     6    28   1
    30     7    29   1
    31     8    30   1
    32     9    31   1
    33    10    32   1
    34    11    33   1
    35    15    34   1
    36    15    35   1
    37    16    36   1
    38    16    37   1
    39    17    38   1
    40    17    39   1
    41    18    40   1
    42    18    41   1
    43    19    42   1
    44    19    43   1
    45    20    44   1
    46    20    45   1
    47    21    46   1
    48    21    47   1
    49    22    48   1
    50    22    49   1
    51    22    50   1
@<TRIPOS>SUBSTRUCTURE
     1  LGS      2

