@<TRIPOS>MOLECULE
2wbg_ligand_017
    50    51
SMALL
GAST_HUCK
****
This file was generated by PARSER (from files_GN.cpp)

@<TRIPOS>ATOM
      1 O4          5.3999    1.3086    5.7558 O.3         1 LGS      -0.3867
      2 C4          4.7943    2.6006    5.7664 C.3         1 LGS       0.1103
      3 C5          3.5109    2.6041    6.6478 C.3         1 LGS       0.1113
      4 C6          3.7125    2.3843    8.1624 C.3         1 LGS       0.1120
      5 O6          2.8596    3.3282    8.8214 O.3         1 LGS      -0.2547
      6 C3          4.5052    3.1084    4.3116 C.3         1 LGS       0.1137
      7 O3          5.5811    3.9439    3.8800 O.3         1 LGS      -0.3864
      8 C2          3.1561    3.8880    4.1511 C.3         1 LGS       0.1318
      9 O2          2.0943    2.9703    3.8582 O.3         1 LGS      -0.3843
     10 C1          2.7792    4.6912    5.4325 C.3         1 LGS       0.1770
     11 O1          3.5945    5.8606    5.5332 O.3         1 LGS      -0.3666
     12 N1          2.9246    3.8991    6.6285 N.pl3       1 LGS      -0.2126
     13 C7          2.6168    4.2802    7.8810 C.2         1 LGS       0.2439
     14 N2          2.0883    5.4858    8.2039 N.2         1 LGS      -0.3607
     15 C8          1.7248    5.8703    9.5237 C.3         1 LGS      -0.0300
     16 C9          1.1675    7.3115    9.5625 C.3         1 LGS      -0.0515
     17 C10         0.8988    7.8984   10.9749 C.3         1 LGS      -0.0530
     18 C11        -0.2186    7.2084   11.8104 C.3         1 LGS      -0.0531
     19 C12         0.2196    6.0005   12.6914 C.3         1 LGS      -0.0531
     20 C13         1.0720    6.3641   13.9374 C.3         1 LGS      -0.0533
     21 C14         1.4205    5.1344   14.8201 C.3         1 LGS      -0.0559
     22 C15         2.5015    4.2056   14.2160 C.3         1 LGS      -0.0653
     23 H1          4.7369    0.7227    5.3367 H           1 LGS       0.2100
     24 H2          5.5173    3.2741    6.2340 H           1 LGS       0.0645
     25 H3          2.7912    1.8738    6.2644 H           1 LGS       0.0626
     26 H4          4.7451    2.5779    8.4675 H           1 LGS       0.0660
     27 H5          3.4402    1.3677    8.4598 H           1 LGS       0.0660
     28 H6          4.4858    2.2570    3.6250 H           1 LGS       0.0647
     29 H7          6.3869    3.3895    3.9588 H           1 LGS       0.2100
     30 H8          3.2173    4.5743    3.3015 H           1 LGS       0.0669
     31 H9          2.3331    2.5575    3.0000 H           1 LGS       0.2101
     32 H10         1.7417    5.0244    5.3431 H           1 LGS       0.0908
     33 H11         4.5114    5.5309    5.6413 H           1 LGS       0.2124
     34 H12         2.5944    5.7981   10.1842 H           1 LGS       0.0282
     35 H13         0.9529    5.1793    9.8569 H           1 LGS       0.0282
     36 H14         0.2451    7.3512    8.9756 H           1 LGS       0.0266
     37 H15         1.9008    7.9629    9.0802 H           1 LGS       0.0266
     38 H16         0.6118    8.9448   10.8309 H           1 LGS       0.0265
     39 H17         1.8314    7.9052   11.5356 H           1 LGS       0.0265
     40 H18        -1.0161    6.8902   11.1293 H           1 LGS       0.0265
     41 H19        -0.6590    7.9586   12.4739 H           1 LGS       0.0265
     42 H20         0.7777    5.2828   12.0995 H           1 LGS       0.0265
     43 H21        -0.6846    5.4905   13.0295 H           1 LGS       0.0265
     44 H22         0.5022    7.0721   14.5415 H           1 LGS       0.0265
     45 H23         1.9993    6.8582   13.6362 H           1 LGS       0.0265
     46 H24         0.5177    4.5518   15.0159 H           1 LGS       0.0263
     47 H25         1.7872    5.4950   15.7823 H           1 LGS       0.0263
     48 H26         2.6856    3.3750   14.8999 H           1 LGS       0.0230
     49 H27         3.4403    4.7465   14.0676 H           1 LGS       0.0230
     50 H28         2.1811    3.7917   13.2578 H           1 LGS       0.0230
@<TRIPOS>BOND
     1     1     2   1
     2     2     3   1
     3     2     6   1
     4     3     4   1
     5     3    12   1
     6     4     5   1
     7     5    13   1
     8     6     7   1
     9     6     8   1
    10     8     9   1
    11     8    10   1
    12    10    11   1
    13    10    12   1
    14    12    13   1
    15    13    14   2
    16    14    15   1
    17    15    16   1
    18    16    17   1
    19    17    18   1
    20    18    19   1
    21    19    20   1
    22    20    21   1
    23    21    22   1
    24     1    23   1
    25     2    24   1
    26     3    25   1
    27     4    26   1
    28     4    27   1
    29     6    28   1
    30     7    29   1
    31     8    30   1
    32     9    31   1
    33    10    32   1
    34    11    33   1
    35    15    34   1
    36    15    35   1
    37    16    36   1
    38    16    37   1
    39    17    38   1
    40    17    39   1
    41    18    40   1
    42    18    41   1
    43    19    42   1
    44    19    43   1
    45    20    44   1
    46    20    45   1
    47    21    46   1
    48    21    47   1
    49    22    48   1
    50    22    49   1
    51    22    50   1
@<TRIPOS>SUBSTRUCTURE
     1  LGS      2

