@<TRIPOS>MOLECULE
2wbg_ligand_003
    50    51
SMALL
GAST_HUCK
****
This file was generated by PARSER (from files_GN.cpp)

@<TRIPOS>ATOM
      1 O4          3.3424    4.4348    3.4030 O.3         1 LGS      -0.3867
      2 C4          2.7526    4.0997    4.6585 C.3         1 LGS       0.1103
      3 C5          3.5688    4.7878    5.7872 C.3         1 LGS       0.1113
      4 C6          3.4081    6.3245    5.8351 C.3         1 LGS       0.1120
      5 O6          3.1612    6.6633    7.1974 O.3         1 LGS      -0.2547
      6 C3          2.7084    2.5620    4.8733 C.3         1 LGS       0.1137
      7 O3          1.7966    2.0049    3.9233 O.3         1 LGS      -0.3864
      8 C2          2.2363    2.2030    6.3181 C.3         1 LGS       0.1318
      9 O2          2.3572    0.7962    6.5362 O.3         1 LGS      -0.3843
     10 C1          3.0183    2.9911    7.4137 C.3         1 LGS       0.1770
     11 O1          2.4088    2.7595    8.6865 O.3         1 LGS      -0.3666
     12 N1          3.0991    4.3920    7.0652 N.pl3       1 LGS      -0.2126
     13 C7          2.8466    5.4893    7.8074 C.2         1 LGS       0.2439
     14 N2          2.3798    5.4732    9.0723 N.2         1 LGS      -0.3607
     15 C8          2.1253    6.5955    9.9210 C.3         1 LGS      -0.0300
     16 C9          0.6641    6.5630   10.4395 C.3         1 LGS      -0.0515
     17 C10         0.3521    7.5763   11.5813 C.3         1 LGS      -0.0530
     18 C11         0.5912    7.0796   13.0448 C.3         1 LGS      -0.0531
     19 C12         2.0615    6.7980   13.4872 C.3         1 LGS      -0.0531
     20 C13         2.5989    5.3707   13.1595 C.3         1 LGS      -0.0533
     21 C14         2.4781    4.3150   14.3005 C.3         1 LGS      -0.0559
     22 C15         1.2051    4.4392   15.1737 C.3         1 LGS      -0.0653
     23 H1          2.7984    3.9768    2.7238 H           1 LGS       0.2100
     24 H2          1.7252    4.4818    4.6603 H           1 LGS       0.0645
     25 H3          4.6289    4.5216    5.6988 H           1 LGS       0.0626
     26 H4          2.5607    6.6724    5.2350 H           1 LGS       0.0660
     27 H5          4.3122    6.8268    5.4837 H           1 LGS       0.0660
     28 H6          3.7058    2.1435    4.6950 H           1 LGS       0.0647
     29 H7          2.2743    1.2620    3.5033 H           1 LGS       0.2100
     30 H8          1.1751    2.4507    6.3950 H           1 LGS       0.0669
     31 H9          2.0318    0.3672    5.7190 H           1 LGS       0.2101
     32 H10         4.0406    2.6061    7.4587 H           1 LGS       0.0908
     33 H11         3.0726    2.3026    9.2472 H           1 LGS       0.2124
     34 H12         2.3003    7.5545    9.4150 H           1 LGS       0.0282
     35 H13         2.8182    6.5323   10.7624 H           1 LGS       0.0282
     36 H14         0.4203    5.5549   10.7916 H           1 LGS       0.0266
     37 H15         0.0069    6.7849    9.5863 H           1 LGS       0.0266
     38 H16        -0.7123    7.8321   11.5041 H           1 LGS       0.0265
     39 H17         0.9067    8.5063   11.4040 H           1 LGS       0.0265
     40 H18        -0.0291    6.1920   13.2233 H           1 LGS       0.0265
     41 H19         0.2021    7.8625   13.7014 H           1 LGS       0.0265
     42 H20         2.1313    6.9439   14.5701 H           1 LGS       0.0265
     43 H21         2.7187    7.5456   13.0302 H           1 LGS       0.0265
     44 H22         3.6657    5.4432   12.9234 H           1 LGS       0.0265
     45 H23         2.0964    4.9709   12.2723 H           1 LGS       0.0265
     46 H24         3.3474    4.4124   14.9673 H           1 LGS       0.0263
     47 H25         2.5001    3.3111   13.8488 H           1 LGS       0.0263
     48 H26         1.1221    3.5485   15.8193 H           1 LGS       0.0230
     49 H27         0.3051    4.5137   14.5399 H           1 LGS       0.0230
     50 H28         1.2936    5.3309   15.8147 H           1 LGS       0.0230
@<TRIPOS>BOND
     1     1     2   1
     2     2     3   1
     3     2     6   1
     4     3     4   1
     5     3    12   1
     6     4     5   1
     7     5    13   1
     8     6     7   1
     9     6     8   1
    10     8     9   1
    11     8    10   1
    12    10    11   1
    13    10    12   1
    14    12    13   1
    15    13    14   2
    16    14    15   1
    17    15    16   1
    18    16    17   1
    19    17    18   1
    20    18    19   1
    21    19    20   1
    22    20    21   1
    23    21    22   1
    24     1    23   1
    25     2    24   1
    26     3    25   1
    27     4    26   1
    28     4    27   1
    29     6    28   1
    30     7    29   1
    31     8    30   1
    32     9    31   1
    33    10    32   1
    34    11    33   1
    35    15    34   1
    36    15    35   1
    37    16    36   1
    38    16    37   1
    39    17    38   1
    40    17    39   1
    41    18    40   1
    42    18    41   1
    43    19    42   1
    44    19    43   1
    45    20    44   1
    46    20    45   1
    47    21    46   1
    48    21    47   1
    49    22    48   1
    50    22    49   1
    51    22    50   1
@<TRIPOS>SUBSTRUCTURE
     1  LGS      2

