@<TRIPOS>MOLECULE
2wbg_ligand_035
    50    51
SMALL
GAST_HUCK
****
This file was generated by PARSER (from files_GN.cpp)

@<TRIPOS>ATOM
      1 O4          5.1462    1.6074    3.2774 O.3         1 LGS      -0.3867
      2 C4          4.6059    2.7869    3.8761 C.3         1 LGS       0.1103
      3 C5          5.0773    2.8643    5.3599 C.3         1 LGS       0.1113
      4 C6          6.5463    3.2771    5.5767 C.3         1 LGS       0.1120
      5 O6          6.5409    4.0954    6.7529 O.3         1 LGS      -0.2547
      6 C3          3.0479    2.8199    3.7222 C.3         1 LGS       0.1137
      7 O3          2.6525    3.8898    2.8605 O.3         1 LGS      -0.3864
      8 C2          2.2827    2.9854    5.0739 C.3         1 LGS       0.1318
      9 O2          2.2424    1.7500    5.7949 O.3         1 LGS      -0.3843
     10 C1          2.9589    4.0724    5.9681 C.3         1 LGS       0.1770
     11 O1          2.6525    5.3635    5.4335 O.3         1 LGS      -0.3666
     12 N1          4.3946    3.8965    6.0675 N.pl3       1 LGS      -0.2126
     13 C7          5.2871    4.6108    6.7969 C.2         1 LGS       0.2439
     14 N2          5.1366    5.7157    7.5601 N.2         1 LGS      -0.3607
     15 C8          4.0582    6.6110    7.8078 C.3         1 LGS      -0.0300
     16 C9          4.4700    7.6769    8.8674 C.3         1 LGS      -0.0515
     17 C10         3.5754    7.7121   10.1367 C.3         1 LGS      -0.0530
     18 C11         3.8326    6.5500   11.1413 C.3         1 LGS      -0.0531
     19 C12         2.8236    6.5443   12.3216 C.3         1 LGS      -0.0531
     20 C13         1.4528    5.8683   11.9988 C.3         1 LGS      -0.0533
     21 C14         0.2121    6.6412   12.5222 C.3         1 LGS      -0.0559
     22 C15        -0.2959    7.7186   11.5389 C.3         1 LGS      -0.0653
     23 H1          6.1224    1.7092    3.3400 H           1 LGS       0.2100
     24 H2          5.0250    3.6408    3.3425 H           1 LGS       0.0645
     25 H3          4.8916    1.9147    5.8693 H           1 LGS       0.0626
     26 H4          6.9332    3.8690    4.7415 H           1 LGS       0.0660
     27 H5          7.1938    2.4089    5.7200 H           1 LGS       0.0660
     28 H6          2.7004    1.9019    3.2448 H           1 LGS       0.0647
     29 H7          3.1543    3.7644    2.0299 H           1 LGS       0.2100
     30 H8          1.2502    3.2728    4.8788 H           1 LGS       0.0669
     31 H9          2.0038    1.0635    5.1324 H           1 LGS       0.2101
     32 H10         2.5250    4.0145    6.9704 H           1 LGS       0.0908
     33 H11         3.1029    5.3966    4.5574 H           1 LGS       0.2124
     34 H12         3.1853    6.0470    8.1369 H           1 LGS       0.0282
     35 H13         3.8080    7.1092    6.8679 H           1 LGS       0.0282
     36 H14         4.4134    8.6641    8.3956 H           1 LGS       0.0266
     37 H15         5.5123    7.5448    9.1761 H           1 LGS       0.0266
     38 H16         2.5255    7.7234    9.8351 H           1 LGS       0.0265
     39 H17         3.7738    8.6525   10.6591 H           1 LGS       0.0265
     40 H18         4.8432    6.6729   11.5456 H           1 LGS       0.0265
     41 H19         3.8041    5.5878   10.6225 H           1 LGS       0.0265
     42 H20         2.6791    7.5703   12.6656 H           1 LGS       0.0265
     43 H21         3.2802    6.0040   13.1563 H           1 LGS       0.0265
     44 H22         1.4473    4.8732   12.4532 H           1 LGS       0.0265
     45 H23         1.3346    5.7110   10.9233 H           1 LGS       0.0265
     46 H24         0.4389    7.1108   13.4865 H           1 LGS       0.0263
     47 H25        -0.6012    5.9311   12.6965 H           1 LGS       0.0263
     48 H26        -1.1639    8.2363   11.9536 H           1 LGS       0.0230
     49 H27        -0.5916    7.2576   10.5930 H           1 LGS       0.0230
     50 H28         0.4827    8.4574   11.3373 H           1 LGS       0.0230
@<TRIPOS>BOND
     1     1     2   1
     2     2     3   1
     3     2     6   1
     4     3     4   1
     5     3    12   1
     6     4     5   1
     7     5    13   1
     8     6     7   1
     9     6     8   1
    10     8     9   1
    11     8    10   1
    12    10    11   1
    13    10    12   1
    14    12    13   1
    15    13    14   2
    16    14    15   1
    17    15    16   1
    18    16    17   1
    19    17    18   1
    20    18    19   1
    21    19    20   1
    22    20    21   1
    23    21    22   1
    24     1    23   1
    25     2    24   1
    26     3    25   1
    27     4    26   1
    28     4    27   1
    29     6    28   1
    30     7    29   1
    31     8    30   1
    32     9    31   1
    33    10    32   1
    34    11    33   1
    35    15    34   1
    36    15    35   1
    37    16    36   1
    38    16    37   1
    39    17    38   1
    40    17    39   1
    41    18    40   1
    42    18    41   1
    43    19    42   1
    44    19    43   1
    45    20    44   1
    46    20    45   1
    47    21    46   1
    48    21    47   1
    49    22    48   1
    50    22    49   1
    51    22    50   1
@<TRIPOS>SUBSTRUCTURE
     1  LGS      2

