@<TRIPOS>MOLECULE
2wbg_ligand_055
    50    51
SMALL
GAST_HUCK
****
This file was generated by PARSER (from files_GN.cpp)

@<TRIPOS>ATOM
      1 O4          7.8316    5.2655    3.6504 O.3         1 LGS      -0.3867
      2 C4          6.6145    5.4103    4.3797 C.3         1 LGS       0.1103
      3 C5          6.1655    4.0214    4.9199 C.3         1 LGS       0.1113
      4 C6          7.0086    3.4612    6.0852 C.3         1 LGS       0.1120
      5 O6          6.0930    3.0496    7.1068 O.3         1 LGS      -0.2547
      6 C3          5.5079    6.0312    3.4810 C.3         1 LGS       0.1137
      7 O3          5.8859    7.3508    3.0858 O.3         1 LGS      -0.3864
      8 C2          4.1409    6.0648    4.2264 C.3         1 LGS       0.1318
      9 O2          3.1028    6.5273    3.3644 O.3         1 LGS      -0.3843
     10 C1          3.7637    4.6605    4.7619 C.3         1 LGS       0.1770
     11 O1          2.5398    4.7763    5.4876 O.3         1 LGS      -0.3666
     12 N1          4.8760    4.1110    5.5059 N.pl3       1 LGS      -0.2126
     13 C7          4.8851    3.5642    6.7382 C.2         1 LGS       0.2439
     14 N2          3.8018    3.5143    7.5450 N.2         1 LGS      -0.3607
     15 C8          3.6909    2.9152    8.8333 C.3         1 LGS      -0.0300
     16 C9          3.1836    3.9199    9.9010 C.3         1 LGS      -0.0515
     17 C10         4.2355    4.9402   10.4340 C.3         1 LGS      -0.0530
     18 C11         3.7912    5.6535   11.7542 C.3         1 LGS      -0.0531
     19 C12         2.4550    6.4474   11.6247 C.3         1 LGS      -0.0531
     20 C13         1.8899    6.9007   13.0041 C.3         1 LGS      -0.0533
     21 C14         0.3548    7.1477   12.9829 C.3         1 LGS      -0.0559
     22 C15        -0.1917    7.7981   11.6862 C.3         1 LGS      -0.0653
     23 H1          8.1498    6.1780    3.4805 H           1 LGS       0.2100
     24 H2          6.7995    6.0883    5.2133 H           1 LGS       0.0645
     25 H3          6.1330    3.2977    4.0990 H           1 LGS       0.0626
     26 H4          7.6788    4.2143    6.5059 H           1 LGS       0.0660
     27 H5          7.6115    2.6109    5.7585 H           1 LGS       0.0660
     28 H6          5.4060    5.4323    2.5675 H           1 LGS       0.0647
     29 H7          5.2748    7.5990    2.3629 H           1 LGS       0.2100
     30 H8          4.2143    6.7561    5.0677 H           1 LGS       0.0669
     31 H9          3.1869    7.5124    3.3426 H           1 LGS       0.2101
     32 H10         3.5672    4.0014    3.9121 H           1 LGS       0.0908
     33 H11         2.2883    3.8647    5.7271 H           1 LGS       0.2124
     34 H12         4.6432    2.4898    9.1686 H           1 LGS       0.0282
     35 H13         2.9528    2.1042    8.7635 H           1 LGS       0.0282
     36 H14         2.8096    3.3338   10.7526 H           1 LGS       0.0266
     37 H15         2.3381    4.4705    9.4826 H           1 LGS       0.0266
     38 H16         4.4330    5.6912    9.6650 H           1 LGS       0.0265
     39 H17         5.1771    4.4091   10.6346 H           1 LGS       0.0265
     40 H18         4.5932    6.3446   12.0588 H           1 LGS       0.0265
     41 H19         3.6983    4.8881   12.5409 H           1 LGS       0.0265
     42 H20         1.7037    5.8088   11.1286 H           1 LGS       0.0265
     43 H21         2.6331    7.3442   11.0037 H           1 LGS       0.0265
     44 H22         2.4013    7.8174   13.3318 H           1 LGS       0.0265
     45 H23         2.0821    6.1204   13.7549 H           1 LGS       0.0265
     46 H24         0.1162    7.8009   13.8293 H           1 LGS       0.0263
     47 H25        -0.1695    6.1892   13.1450 H           1 LGS       0.0263
     48 H26        -1.2247    8.1230   11.8532 H           1 LGS       0.0230
     49 H27        -0.1859    7.0772   10.8647 H           1 LGS       0.0230
     50 H28         0.4027    8.6599   11.4091 H           1 LGS       0.0230
@<TRIPOS>BOND
     1     1     2   1
     2     2     3   1
     3     2     6   1
     4     3     4   1
     5     3    12   1
     6     4     5   1
     7     5    13   1
     8     6     7   1
     9     6     8   1
    10     8     9   1
    11     8    10   1
    12    10    11   1
    13    10    12   1
    14    12    13   1
    15    13    14   2
    16    14    15   1
    17    15    16   1
    18    16    17   1
    19    17    18   1
    20    18    19   1
    21    19    20   1
    22    20    21   1
    23    21    22   1
    24     1    23   1
    25     2    24   1
    26     3    25   1
    27     4    26   1
    28     4    27   1
    29     6    28   1
    30     7    29   1
    31     8    30   1
    32     9    31   1
    33    10    32   1
    34    11    33   1
    35    15    34   1
    36    15    35   1
    37    16    36   1
    38    16    37   1
    39    17    38   1
    40    17    39   1
    41    18    40   1
    42    18    41   1
    43    19    42   1
    44    19    43   1
    45    20    44   1
    46    20    45   1
    47    21    46   1
    48    21    47   1
    49    22    48   1
    50    22    49   1
    51    22    50   1
@<TRIPOS>SUBSTRUCTURE
     1  LGS      2

