@<TRIPOS>MOLECULE
2wbg_ligand_030
    50    51
SMALL
GAST_HUCK
****
This file was generated by PARSER (from files_GN.cpp)

@<TRIPOS>ATOM
      1 O4          5.2892    1.9041    2.0061 O.3         1 LGS      -0.3867
      2 C4          5.4255    2.1842    3.3983 C.3         1 LGS       0.1103
      3 C5          5.2128    3.7012    3.6634 C.3         1 LGS       0.1113
      4 C6          3.7698    4.2256    3.4941 C.3         1 LGS       0.1120
      5 O6          3.5518    5.1587    4.5586 O.3         1 LGS      -0.2547
      6 C3          6.8123    1.6713    3.9140 C.3         1 LGS       0.1137
      7 O3          6.6423    0.4023    4.5482 O.3         1 LGS      -0.3864
      8 C2          7.5380    2.6377    4.9085 C.3         1 LGS       0.1318
      9 O2          8.3612    3.5541    4.1831 O.3         1 LGS      -0.3843
     10 C1          6.5406    3.4437    5.7933 C.3         1 LGS       0.1770
     11 O1          5.9971    2.5873    6.7987 O.3         1 LGS      -0.3666
     12 N1          5.4483    4.0035    5.0292 N.pl3       1 LGS      -0.2126
     13 C7          4.4722    4.8064    5.4963 C.2         1 LGS       0.2439
     14 N2          4.4289    5.2481    6.7742 N.2         1 LGS      -0.3607
     15 C8          3.4899    6.1252    7.3838 C.3         1 LGS      -0.0300
     16 C9          2.7367    5.4375    8.5623 C.3         1 LGS      -0.0515
     17 C10         2.6132    6.3276    9.8316 C.3         1 LGS      -0.0530
     18 C11         3.8944    6.3593   10.7185 C.3         1 LGS      -0.0531
     19 C12         3.9632    5.2730   11.8302 C.3         1 LGS      -0.0531
     20 C13         3.2772    5.6574   13.1859 C.3         1 LGS      -0.0533
     21 C14         1.9797    4.8780   13.5176 C.3         1 LGS      -0.0559
     22 C15         1.3781    5.2612   14.8914 C.3         1 LGS      -0.0653
     23 H1          4.4773    2.3772    1.7243 H           1 LGS       0.2100
     24 H2          4.6360    1.6358    3.9183 H           1 LGS       0.0645
     25 H3          5.9006    4.2902    3.0473 H           1 LGS       0.0626
     26 H4          3.0333    3.4212    3.5763 H           1 LGS       0.0660
     27 H5          3.6317    4.7217    2.5325 H           1 LGS       0.0660
     28 H6          7.4824    1.4986    3.0688 H           1 LGS       0.0647
     29 H7          6.4402   -0.2294    3.8207 H           1 LGS       0.2100
     30 H8          8.2165    2.0756    5.5579 H           1 LGS       0.0669
     31 H9          9.0798    3.0057    3.7946 H           1 LGS       0.2101
     32 H10         7.0779    4.2544    6.2942 H           1 LGS       0.0908
     33 H11         6.7198    2.4718    7.4502 H           1 LGS       0.2124
     34 H12         2.7649    6.5008    6.6642 H           1 LGS       0.0282
     35 H13         4.0617    6.9843    7.7339 H           1 LGS       0.0282
     36 H14         3.2112    4.4932    8.8482 H           1 LGS       0.0266
     37 H15         1.7260    5.1863    8.2234 H           1 LGS       0.0266
     38 H16         1.7620    5.9712   10.4171 H           1 LGS       0.0265
     39 H17         2.3676    7.3462    9.5103 H           1 LGS       0.0265
     40 H18         3.9868    7.3453   11.1790 H           1 LGS       0.0265
     41 H19         4.7774    6.2429   10.0805 H           1 LGS       0.0265
     42 H20         5.0212    5.0984   12.0361 H           1 LGS       0.0265
     43 H21         3.5637    4.3348   11.4460 H           1 LGS       0.0265
     44 H22         3.0620    6.7321   13.2131 H           1 LGS       0.0265
     45 H23         3.9909    5.4584   13.9942 H           1 LGS       0.0265
     46 H24         2.1979    3.8031   13.5283 H           1 LGS       0.0263
     47 H25         1.2164    5.0638   12.7563 H           1 LGS       0.0263
     48 H26         0.4723    4.6900   15.0711 H           1 LGS       0.0230
     49 H27         1.1295    6.3247   14.9136 H           1 LGS       0.0230
     50 H28         2.0873    5.0528   15.6921 H           1 LGS       0.0230
@<TRIPOS>BOND
     1     1     2   1
     2     2     3   1
     3     2     6   1
     4     3     4   1
     5     3    12   1
     6     4     5   1
     7     5    13   1
     8     6     7   1
     9     6     8   1
    10     8     9   1
    11     8    10   1
    12    10    11   1
    13    10    12   1
    14    12    13   1
    15    13    14   2
    16    14    15   1
    17    15    16   1
    18    16    17   1
    19    17    18   1
    20    18    19   1
    21    19    20   1
    22    20    21   1
    23    21    22   1
    24     1    23   1
    25     2    24   1
    26     3    25   1
    27     4    26   1
    28     4    27   1
    29     6    28   1
    30     7    29   1
    31     8    30   1
    32     9    31   1
    33    10    32   1
    34    11    33   1
    35    15    34   1
    36    15    35   1
    37    16    36   1
    38    16    37   1
    39    17    38   1
    40    17    39   1
    41    18    40   1
    42    18    41   1
    43    19    42   1
    44    19    43   1
    45    20    44   1
    46    20    45   1
    47    21    46   1
    48    21    47   1
    49    22    48   1
    50    22    49   1
    51    22    50   1
@<TRIPOS>SUBSTRUCTURE
     1  LGS      2

