@<TRIPOS>MOLECULE
2wbg_ligand_032
    50    51
SMALL
GAST_HUCK
****
This file was generated by PARSER (from files_GN.cpp)

@<TRIPOS>ATOM
      1 O4          5.2741    5.8895    2.7880 O.3         1 LGS      -0.3867
      2 C4          5.5005    4.8175    3.7019 C.3         1 LGS       0.1103
      3 C5          6.2028    5.3444    4.9858 C.3         1 LGS       0.1113
      4 C6          5.3429    6.2534    5.8944 C.3         1 LGS       0.1120
      5 O6          5.6081    5.8282    7.2296 O.3         1 LGS      -0.2547
      6 C3          6.3104    3.6611    3.0146 C.3         1 LGS       0.1137
      7 O3          5.4172    2.6140    2.6356 O.3         1 LGS      -0.3864
      8 C2          7.4467    3.0562    3.8991 C.3         1 LGS       0.1318
      9 O2          8.6404    3.8372    3.7688 O.3         1 LGS      -0.3843
     10 C1          7.0510    3.0086    5.4059 C.3         1 LGS       0.1770
     11 O1          6.1409    1.9305    5.6128 O.3         1 LGS      -0.3666
     12 N1          6.4822    4.2590    5.8558 N.pl3       1 LGS      -0.2126
     13 C7          6.0428    4.5462    7.0998 C.2         1 LGS       0.2439
     14 N2          5.9368    3.6326    8.0894 N.2         1 LGS      -0.3607
     15 C8          5.4754    3.7718    9.4326 C.3         1 LGS      -0.0300
     16 C9          4.2328    4.6683    9.6888 C.3         1 LGS      -0.0515
     17 C10         3.0729    4.5092    8.6626 C.3         1 LGS      -0.0530
     18 C11         2.0709    5.6990    8.6720 C.3         1 LGS      -0.0531
     19 C12         1.5559    6.1097   10.0848 C.3         1 LGS      -0.0531
     20 C13         0.5771    7.3140   10.0767 C.3         1 LGS      -0.0533
     21 C14        -0.1863    7.5258   11.4087 C.3         1 LGS      -0.0559
     22 C15         0.6381    7.1877   12.6758 C.3         1 LGS      -0.0653
     23 H1          4.5552    6.4265    3.1865 H           1 LGS       0.2100
     24 H2          4.5202    4.4297    3.9938 H           1 LGS       0.0645
     25 H3          7.1351    5.8561    4.7291 H           1 LGS       0.0626
     26 H4          4.2743    6.1279    5.6971 H           1 LGS       0.0660
     27 H5          5.6116    7.3065    5.7745 H           1 LGS       0.0660
     28 H6          6.7590    4.0317    2.0898 H           1 LGS       0.0647
     29 H7          4.8101    3.0153    1.9808 H           1 LGS       0.2100
     30 H8          7.6959    2.0458    3.5520 H           1 LGS       0.0669
     31 H9          9.3403    3.1979    3.5140 H           1 LGS       0.2101
     32 H10         7.9447    2.7884    5.9944 H           1 LGS       0.0908
     33 H11         5.2852    2.2252    5.2317 H           1 LGS       0.2124
     34 H12         6.3056    4.1569   10.0350 H           1 LGS       0.0282
     35 H13         5.2484    2.7634    9.7807 H           1 LGS       0.0282
     36 H14         4.5532    5.7108    9.7276 H           1 LGS       0.0266
     37 H15         3.8585    4.4230   10.6857 H           1 LGS       0.0266
     38 H16         2.5377    3.5756    8.8622 H           1 LGS       0.0265
     39 H17         3.4927    4.4439    7.6550 H           1 LGS       0.0265
     40 H18         1.2089    5.4211    8.0579 H           1 LGS       0.0265
     41 H19         2.5438    6.5495    8.1724 H           1 LGS       0.0265
     42 H20         2.3935    6.3488   10.7406 H           1 LGS       0.0265
     43 H21         1.0410    5.2575   10.5281 H           1 LGS       0.0265
     44 H22        -0.1648    7.1518    9.2935 H           1 LGS       0.0265
     45 H23         1.1294    8.2219    9.8302 H           1 LGS       0.0265
     46 H24        -1.1034    6.9307   11.4113 H           1 LGS       0.0263
     47 H25        -0.4802    8.5759   11.4678 H           1 LGS       0.0263
     48 H26         0.1000    7.5150   13.5682 H           1 LGS       0.0230
     49 H27         1.6049    7.6974   12.6535 H           1 LGS       0.0230
     50 H28         0.8028    6.1110   12.7528 H           1 LGS       0.0230
@<TRIPOS>BOND
     1     1     2   1
     2     2     3   1
     3     2     6   1
     4     3     4   1
     5     3    12   1
     6     4     5   1
     7     5    13   1
     8     6     7   1
     9     6     8   1
    10     8     9   1
    11     8    10   1
    12    10    11   1
    13    10    12   1
    14    12    13   1
    15    13    14   2
    16    14    15   1
    17    15    16   1
    18    16    17   1
    19    17    18   1
    20    18    19   1
    21    19    20   1
    22    20    21   1
    23    21    22   1
    24     1    23   1
    25     2    24   1
    26     3    25   1
    27     4    26   1
    28     4    27   1
    29     6    28   1
    30     7    29   1
    31     8    30   1
    32     9    31   1
    33    10    32   1
    34    11    33   1
    35    15    34   1
    36    15    35   1
    37    16    36   1
    38    16    37   1
    39    17    38   1
    40    17    39   1
    41    18    40   1
    42    18    41   1
    43    19    42   1
    44    19    43   1
    45    20    44   1
    46    20    45   1
    47    21    46   1
    48    21    47   1
    49    22    48   1
    50    22    49   1
    51    22    50   1
@<TRIPOS>SUBSTRUCTURE
     1  LGS      2

