@<TRIPOS>MOLECULE
2wbg_ligand_065
    50    51
SMALL
GAST_HUCK
****
This file was generated by PARSER (from files_GN.cpp)

@<TRIPOS>ATOM
      1 O4          0.0089    6.7156    9.2359 O.3         1 LGS      -0.3867
      2 C4          1.0602    7.0101   10.1535 C.3         1 LGS       0.1103
      3 C5          2.3724    6.3001    9.7239 C.3         1 LGS       0.1113
      4 C6          2.9193    6.5719    8.3145 C.3         1 LGS       0.1120
      5 O6          4.3347    6.4337    8.4698 O.3         1 LGS      -0.2547
      6 C3          0.7131    6.5648   11.6095 C.3         1 LGS       0.1137
      7 O3         -0.1099    7.5602   12.2344 O.3         1 LGS      -0.3864
      8 C2          1.9554    6.2138   12.5147 C.3         1 LGS       0.1318
      9 O2          2.1939    4.7955   12.5587 O.3         1 LGS      -0.3843
     10 C1          3.2704    6.9106   11.9980 C.3         1 LGS       0.1770
     11 O1          3.1312    8.2781   12.3807 O.3         1 LGS      -0.3666
     12 N1          3.4601    6.7038   10.5578 N.pl3       1 LGS      -0.2126
     13 C7          4.5832    6.7453    9.7774 C.2         1 LGS       0.2439
     14 N2          5.8795    7.0633    9.9982 N.2         1 LGS      -0.3607
     15 C8          6.6115    7.4973   11.1274 C.3         1 LGS      -0.0300
     16 C9          6.0427    8.8414   11.6727 C.3         1 LGS      -0.0515
     17 C10         6.6892   10.2005   11.3096 C.3         1 LGS      -0.0530
     18 C11         5.7237   11.3976   11.5892 C.3         1 LGS      -0.0531
     19 C12         4.5685   11.5974   10.5837 C.3         1 LGS      -0.0531
     20 C13         4.9980   12.0267    9.1412 C.3         1 LGS      -0.0533
     21 C14         5.1471   10.8395    8.1405 C.3         1 LGS      -0.0559
     22 C15         5.4309   11.2846    6.6836 C.3         1 LGS      -0.0653
     23 H1         -0.7380    7.3035    9.4838 H           1 LGS       0.2100
     24 H2          1.2253    8.0895   10.1393 H           1 LGS       0.0645
     25 H3          2.2326    5.2241    9.8344 H           1 LGS       0.0626
     26 H4          2.6928    7.5853    7.9995 H           1 LGS       0.0660
     27 H5          2.5534    5.8549    7.5700 H           1 LGS       0.0660
     28 H6          0.0883    5.6650   11.5454 H           1 LGS       0.0647
     29 H7          0.4947    8.2696   12.5341 H           1 LGS       0.2100
     30 H8          1.7503    6.5153   13.5530 H           1 LGS       0.0669
     31 H9          1.3525    4.3976   12.8587 H           1 LGS       0.2101
     32 H10         4.1176    6.4848   12.5199 H           1 LGS       0.0908
     33 H11         2.9574    8.2921   13.3473 H           1 LGS       0.2124
     34 H12         7.6635    7.6074   10.8528 H           1 LGS       0.0282
     35 H13         6.5621    6.7301   11.9097 H           1 LGS       0.0282
     36 H14         6.0271    8.7825   12.7817 H           1 LGS       0.0266
     37 H15         5.0374    8.8962   11.3065 H           1 LGS       0.0266
     38 H16         7.0333   10.2335   10.2938 H           1 LGS       0.0265
     39 H17         7.5725   10.3628   11.9452 H           1 LGS       0.0265
     40 H18         6.3048   12.3155   11.6355 H           1 LGS       0.0265
     41 H19         5.2899   11.2728   12.5831 H           1 LGS       0.0265
     42 H20         3.8937   12.3647   10.9690 H           1 LGS       0.0265
     43 H21         3.9540   10.7060   10.5009 H           1 LGS       0.0265
     44 H22         5.9258   12.5888    9.1754 H           1 LGS       0.0265
     45 H23         4.2329   12.6770    8.7373 H           1 LGS       0.0265
     46 H24         4.2241   10.2486    8.1497 H           1 LGS       0.0263
     47 H25         5.9658   10.1810    8.4176 H           1 LGS       0.0263
     48 H26         5.5339   10.4003    6.0026 H           1 LGS       0.0230
     49 H27         6.3645   11.8799    6.6067 H           1 LGS       0.0230
     50 H28         4.6010   11.9008    6.2994 H           1 LGS       0.0230
@<TRIPOS>BOND
     1     1     2   1
     2     2     3   1
     3     2     6   1
     4     3     4   1
     5     3    12   1
     6     4     5   1
     7     5    13   1
     8     6     7   1
     9     6     8   1
    10     8     9   1
    11     8    10   1
    12    10    11   1
    13    10    12   1
    14    12    13   1
    15    13    14   2
    16    14    15   1
    17    15    16   1
    18    16    17   1
    19    17    18   1
    20    18    19   1
    21    19    20   1
    22    20    21   1
    23    21    22   1
    24     1    23   1
    25     2    24   1
    26     3    25   1
    27     4    26   1
    28     4    27   1
    29     6    28   1
    30     7    29   1
    31     8    30   1
    32     9    31   1
    33    10    32   1
    34    11    33   1
    35    15    34   1
    36    15    35   1
    37    16    36   1
    38    16    37   1
    39    17    38   1
    40    17    39   1
    41    18    40   1
    42    18    41   1
    43    19    42   1
    44    19    43   1
    45    20    44   1
    46    20    45   1
    47    21    46   1
    48    21    47   1
    49    22    48   1
    50    22    49   1
    51    22    50   1
@<TRIPOS>SUBSTRUCTURE
     1  LGS      2

