@<TRIPOS>MOLECULE
2wbg_ligand_007
    50    51
SMALL
GAST_HUCK
****
This file was generated by PARSER (from files_GN.cpp)

@<TRIPOS>ATOM
      1 O4          3.9056    4.8329   14.9948 O.3         1 LGS      -0.3867
      2 C4          2.9725    4.9791   13.9273 C.3         1 LGS       0.1103
      3 C5          3.6426    5.8273   12.8075 C.3         1 LGS       0.1113
      4 C6          4.7341    5.1251   11.9671 C.3         1 LGS       0.1120
      5 O6          4.5601    5.5729   10.6210 O.3         1 LGS      -0.2547
      6 C3          1.6168    5.5928   14.4405 C.3         1 LGS       0.1137
      7 O3          0.5770    4.6118   14.4469 O.3         1 LGS      -0.3864
      8 C2          1.1197    6.8085   13.6028 C.3         1 LGS       0.1318
      9 O2          1.7701    7.9809   14.1018 O.3         1 LGS      -0.3843
     10 C1          1.3737    6.6168   12.0751 C.3         1 LGS       0.1770
     11 O1          0.4486    5.6602   11.5553 O.3         1 LGS      -0.3666
     12 N1          2.7143    6.1691   11.7953 N.pl3       1 LGS      -0.2126
     13 C7          3.2684    5.9943   10.5755 C.2         1 LGS       0.2439
     14 N2          2.6440    6.2797    9.4152 N.2         1 LGS      -0.3607
     15 C8          3.1600    6.1800    8.0899 C.3         1 LGS      -0.0300
     16 C9          2.1057    5.5758    7.1201 C.3         1 LGS      -0.0515
     17 C10         2.3018    5.9676    5.6241 C.3         1 LGS      -0.0530
     18 C11         3.2643    5.0540    4.8090 C.3         1 LGS      -0.0531
     19 C12         2.5515    3.8716    4.0772 C.3         1 LGS      -0.0531
     20 C13         3.2784    2.5002    4.1402 C.3         1 LGS      -0.0533
     21 C14         3.5288    1.9211    5.5636 C.3         1 LGS      -0.0559
     22 C15         2.2542    1.5267    6.3452 C.3         1 LGS      -0.0653
     23 H1          3.4405    4.2970   15.6810 H           1 LGS       0.2100
     24 H2          2.7737    3.9812   13.5269 H           1 LGS       0.0645
     25 H3          4.0515    6.7529   13.2367 H           1 LGS       0.0626
     26 H4          4.6113    4.0427   11.9912 H           1 LGS       0.0660
     27 H5          5.7360    5.3763   12.3090 H           1 LGS       0.0660
     28 H6          1.7253    5.9079   15.4833 H           1 LGS       0.0647
     29 H7          1.0116    3.7489   14.6450 H           1 LGS       0.2100
     30 H8          0.0524    6.9722   13.7645 H           1 LGS       0.0669
     31 H9          2.2257    8.3980   13.3447 H           1 LGS       0.2101
     32 H10         1.1938    7.5677   11.5676 H           1 LGS       0.0908
     33 H11         0.5907    4.8377   12.0635 H           1 LGS       0.2124
     34 H12         4.0790    5.5896    8.0509 H           1 LGS       0.0282
     35 H13         3.4045    7.1977    7.7812 H           1 LGS       0.0282
     36 H14         1.1139    5.9232    7.4264 H           1 LGS       0.0266
     37 H15         2.1125    4.4918    7.2262 H           1 LGS       0.0266
     38 H16         2.6668    6.9938    5.5691 H           1 LGS       0.0265
     39 H17         1.3262    5.9678    5.1319 H           1 LGS       0.0265
     40 H18         4.0555    4.6961    5.4724 H           1 LGS       0.0265
     41 H19         3.7593    5.6688    4.0557 H           1 LGS       0.0265
     42 H20         2.4490    4.1414    3.0225 H           1 LGS       0.0265
     43 H21         1.5375    3.7382    4.4522 H           1 LGS       0.0265
     44 H22         4.2390    2.5935    3.6300 H           1 LGS       0.0265
     45 H23         2.6832    1.7769    3.5759 H           1 LGS       0.0265
     46 H24         4.0993    2.6366    6.1614 H           1 LGS       0.0263
     47 H25         4.1494    1.0328    5.4608 H           1 LGS       0.0263
     48 H26         2.5291    1.0994    7.3113 H           1 LGS       0.0230
     49 H27         1.6727    0.7872    5.7897 H           1 LGS       0.0230
     50 H28         1.6239    2.3923    6.5266 H           1 LGS       0.0230
@<TRIPOS>BOND
     1     1     2   1
     2     2     3   1
     3     2     6   1
     4     3     4   1
     5     3    12   1
     6     4     5   1
     7     5    13   1
     8     6     7   1
     9     6     8   1
    10     8     9   1
    11     8    10   1
    12    10    11   1
    13    10    12   1
    14    12    13   1
    15    13    14   2
    16    14    15   1
    17    15    16   1
    18    16    17   1
    19    17    18   1
    20    18    19   1
    21    19    20   1
    22    20    21   1
    23    21    22   1
    24     1    23   1
    25     2    24   1
    26     3    25   1
    27     4    26   1
    28     4    27   1
    29     6    28   1
    30     7    29   1
    31     8    30   1
    32     9    31   1
    33    10    32   1
    34    11    33   1
    35    15    34   1
    36    15    35   1
    37    16    36   1
    38    16    37   1
    39    17    38   1
    40    17    39   1
    41    18    40   1
    42    18    41   1
    43    19    42   1
    44    19    43   1
    45    20    44   1
    46    20    45   1
    47    21    46   1
    48    21    47   1
    49    22    48   1
    50    22    49   1
    51    22    50   1
@<TRIPOS>SUBSTRUCTURE
     1  LGS      2

