@<TRIPOS>MOLECULE
2wbg_ligand_042
    50    51
SMALL
GAST_HUCK
****
This file was generated by PARSER (from files_GN.cpp)

@<TRIPOS>ATOM
      1 O4          8.4844   12.7602    9.7069 O.3         1 LGS      -0.3867
      2 C4          7.8612   11.6877   10.4127 C.3         1 LGS       0.1103
      3 C5          7.8029   10.4539    9.4556 C.3         1 LGS       0.1113
      4 C6          9.1100    9.6457    9.2324 C.3         1 LGS       0.1120
      5 O6          8.7047    8.2751    9.0828 O.3         1 LGS      -0.2547
      6 C3          6.4508   12.1229   10.9584 C.3         1 LGS       0.1137
      7 O3          6.5062   12.2163   12.3924 O.3         1 LGS      -0.3864
      8 C2          5.2793   11.1752   10.5436 C.3         1 LGS       0.1318
      9 O2          4.8752   11.4705    9.1993 O.3         1 LGS      -0.3843
     10 C1          5.6831    9.6790   10.6160 C.3         1 LGS       0.1770
     11 O1          5.7725    9.2533   11.9737 O.3         1 LGS      -0.3666
     12 N1          6.9504    9.4393    9.9670 N.pl3       1 LGS      -0.2126
     13 C7          7.4830    8.2289    9.6874 C.2         1 LGS       0.2439
     14 N2          6.8513    7.0411    9.8751 N.2         1 LGS      -0.3607
     15 C8          7.2907    5.7480    9.4442 C.3         1 LGS      -0.0300
     16 C9          7.2763    5.6180    7.8854 C.3         1 LGS      -0.0515
     17 C10         8.3643    4.6752    7.3002 C.3         1 LGS      -0.0530
     18 C11         7.8692    3.2278    6.9393 C.3         1 LGS      -0.0531
     19 C12         8.2597    2.7781    5.4939 C.3         1 LGS      -0.0531
     20 C13         7.0410    2.7362    4.5157 C.3         1 LGS      -0.0533
     21 C14         6.9615    1.3864    3.7399 C.3         1 LGS      -0.0559
     22 C15         6.3000    1.5125    2.3505 C.3         1 LGS      -0.0653
     23 H1          8.7414   13.4161   10.3915 H           1 LGS       0.2100
     24 H2          8.5187   11.4452   11.2497 H           1 LGS       0.0645
     25 H3          7.3817   10.7742    8.4968 H           1 LGS       0.0626
     26 H4          9.7746    9.7610   10.1066 H           1 LGS       0.0660
     27 H5          9.6211   10.0133    8.3279 H           1 LGS       0.0660
     28 H6          6.2177   13.1309   10.5834 H           1 LGS       0.0647
     29 H7          5.5884   12.3808   12.6794 H           1 LGS       0.2100
     30 H8          4.4170   11.3494   11.1890 H           1 LGS       0.0669
     31 H9          4.4100   12.3380    9.2659 H           1 LGS       0.2101
     32 H10         4.9081    9.0862   10.1314 H           1 LGS       0.0908
     33 H11         6.6683    9.5185   12.2764 H           1 LGS       0.2124
     34 H12         6.6118    4.9972    9.8732 H           1 LGS       0.0282
     35 H13         8.2931    5.5755    9.8498 H           1 LGS       0.0282
     36 H14         7.4513    6.6018    7.4365 H           1 LGS       0.0266
     37 H15         6.2792    5.3010    7.5604 H           1 LGS       0.0266
     38 H16         9.2116    4.5937    8.0133 H           1 LGS       0.0265
     39 H17         8.7754    5.1781    6.4009 H           1 LGS       0.0265
     40 H18         6.7836    3.1610    7.0765 H           1 LGS       0.0265
     41 H19         8.3177    2.5323    7.6656 H           1 LGS       0.0265
     42 H20         8.7332    1.7947    5.5808 H           1 LGS       0.0265
     43 H21         9.0196    3.4530    5.0698 H           1 LGS       0.0265
     44 H22         7.1256    3.5704    3.8100 H           1 LGS       0.0265
     45 H23         6.0993    2.8451    5.0700 H           1 LGS       0.0265
     46 H24         6.3680    0.6747    4.3395 H           1 LGS       0.0263
     47 H25         7.9694    0.9617    3.6155 H           1 LGS       0.0263
     48 H26         6.1896    0.5186    1.9107 H           1 LGS       0.0230
     49 H27         6.9235    2.1280    1.6854 H           1 LGS       0.0230
     50 H28         5.3071    1.9706    2.4351 H           1 LGS       0.0230
@<TRIPOS>BOND
     1     1     2   1
     2     2     3   1
     3     2     6   1
     4     3     4   1
     5     3    12   1
     6     4     5   1
     7     5    13   1
     8     6     7   1
     9     6     8   1
    10     8     9   1
    11     8    10   1
    12    10    11   1
    13    10    12   1
    14    12    13   1
    15    13    14   2
    16    14    15   1
    17    15    16   1
    18    16    17   1
    19    17    18   1
    20    18    19   1
    21    19    20   1
    22    20    21   1
    23    21    22   1
    24     1    23   1
    25     2    24   1
    26     3    25   1
    27     4    26   1
    28     4    27   1
    29     6    28   1
    30     7    29   1
    31     8    30   1
    32     9    31   1
    33    10    32   1
    34    11    33   1
    35    15    34   1
    36    15    35   1
    37    16    36   1
    38    16    37   1
    39    17    38   1
    40    17    39   1
    41    18    40   1
    42    18    41   1
    43    19    42   1
    44    19    43   1
    45    20    44   1
    46    20    45   1
    47    21    46   1
    48    21    47   1
    49    22    48   1
    50    22    49   1
    51    22    50   1
@<TRIPOS>SUBSTRUCTURE
     1  LGS      2

