@<TRIPOS>MOLECULE
2wbg_ligand_063
    50    51
SMALL
GAST_HUCK
****
This file was generated by PARSER (from files_GN.cpp)

@<TRIPOS>ATOM
      1 O4          2.0461    4.6005    7.5494 O.3         1 LGS      -0.3867
      2 C4          2.5934    5.6781    8.3069 C.3         1 LGS       0.1103
      3 C5          4.1293    5.5174    8.4719 C.3         1 LGS       0.1113
      4 C6          4.9618    5.5940    7.1828 C.3         1 LGS       0.1120
      5 O6          6.2171    6.1327    7.6014 O.3         1 LGS      -0.2547
      6 C3          1.9059    5.7670    9.7053 C.3         1 LGS       0.1137
      7 O3          0.6735    6.4808    9.5891 O.3         1 LGS      -0.3864
      8 C2          2.8012    6.3915   10.8315 C.3         1 LGS       0.1318
      9 O2          3.3757    5.3553   11.6311 O.3         1 LGS      -0.3843
     10 C1          3.9736    7.2533   10.2744 C.3         1 LGS       0.1770
     11 O1          3.4326    8.4696    9.7579 O.3         1 LGS      -0.3666
     12 N1          4.7015    6.5863    9.2206 N.pl3       1 LGS      -0.2126
     13 C7          5.9233    6.8750    8.7045 C.2         1 LGS       0.2439
     14 N2          6.9125    7.6990    9.1197 N.2         1 LGS      -0.3607
     15 C8          7.0886    8.5905   10.2170 C.3         1 LGS      -0.0300
     16 C9          6.2009    9.8646   10.1431 C.3         1 LGS      -0.0515
     17 C10         6.9625   11.1954    9.8983 C.3         1 LGS      -0.0530
     18 C11         6.0246   12.4147    9.6743 C.3         1 LGS      -0.0531
     19 C12         5.1305   12.3950    8.3977 C.3         1 LGS      -0.0531
     20 C13         5.8756   12.4605    7.0296 C.3         1 LGS      -0.0533
     21 C14         6.0650   11.0865    6.3290 C.3         1 LGS      -0.0559
     22 C15         6.7308   11.2083    4.9406 C.3         1 LGS      -0.0653
     23 H1          2.4857    4.6432    6.6743 H           1 LGS       0.2100
     24 H2          2.4017    6.6014    7.7551 H           1 LGS       0.0645
     25 H3          4.3454    4.5746    8.9877 H           1 LGS       0.0626
     26 H4          4.5082    6.2669    6.4477 H           1 LGS       0.0660
     27 H5          5.0991    4.6093    6.7303 H           1 LGS       0.0660
     28 H6          1.6334    4.7537   10.0126 H           1 LGS       0.0647
     29 H7          0.9245    7.4135    9.4169 H           1 LGS       0.2100
     30 H8          2.1931    7.0032   11.5045 H           1 LGS       0.0669
     31 H9          2.6153    4.8711   12.0189 H           1 LGS       0.2101
     32 H10         4.6416    7.4862   11.1036 H           1 LGS       0.0908
     33 H11         3.1447    8.9850   10.5408 H           1 LGS       0.2124
     34 H12         8.1438    8.8700   10.2225 H           1 LGS       0.0282
     35 H13         6.9042    8.0441   11.1428 H           1 LGS       0.0282
     36 H14         5.6272    9.9544   11.0706 H           1 LGS       0.0266
     37 H15         5.4940    9.7388    9.3287 H           1 LGS       0.0266
     38 H16         7.6305   11.0895    9.0432 H           1 LGS       0.0265
     39 H17         7.5842   11.4005   10.7750 H           1 LGS       0.0265
     40 H18         6.6385   13.3195    9.6461 H           1 LGS       0.0265
     41 H19         5.3709   12.5047   10.5461 H           1 LGS       0.0265
     42 H20         4.4842   13.2732    8.4604 H           1 LGS       0.0265
     43 H21         4.4576   11.5352    8.4228 H           1 LGS       0.0265
     44 H22         6.8504   12.9395    7.1610 H           1 LGS       0.0265
     45 H23         5.2951   13.0979    6.3558 H           1 LGS       0.0265
     46 H24         5.0895   10.6093    6.2018 H           1 LGS       0.0263
     47 H25         6.6804   10.4326    6.9490 H           1 LGS       0.0263
     48 H26         6.8410   10.2181    4.4937 H           1 LGS       0.0230
     49 H27         7.7195   11.6625    5.0300 H           1 LGS       0.0230
     50 H28         6.1173   11.8216    4.2768 H           1 LGS       0.0230
@<TRIPOS>BOND
     1     1     2   1
     2     2     3   1
     3     2     6   1
     4     3     4   1
     5     3    12   1
     6     4     5   1
     7     5    13   1
     8     6     7   1
     9     6     8   1
    10     8     9   1
    11     8    10   1
    12    10    11   1
    13    10    12   1
    14    12    13   1
    15    13    14   2
    16    14    15   1
    17    15    16   1
    18    16    17   1
    19    17    18   1
    20    18    19   1
    21    19    20   1
    22    20    21   1
    23    21    22   1
    24     1    23   1
    25     2    24   1
    26     3    25   1
    27     4    26   1
    28     4    27   1
    29     6    28   1
    30     7    29   1
    31     8    30   1
    32     9    31   1
    33    10    32   1
    34    11    33   1
    35    15    34   1
    36    15    35   1
    37    16    36   1
    38    16    37   1
    39    17    38   1
    40    17    39   1
    41    18    40   1
    42    18    41   1
    43    19    42   1
    44    19    43   1
    45    20    44   1
    46    20    45   1
    47    21    46   1
    48    21    47   1
    49    22    48   1
    50    22    49   1
    51    22    50   1
@<TRIPOS>SUBSTRUCTURE
     1  LGS      2

