@<TRIPOS>MOLECULE
2wbg_ligand_038
    50    51
SMALL
GAST_HUCK
****
This file was generated by PARSER (from files_GN.cpp)

@<TRIPOS>ATOM
      1 O4         -0.3449    6.5868   12.1015 O.3         1 LGS      -0.3867
      2 C4          1.0448    6.8664   11.9238 C.3         1 LGS       0.1103
      3 C5          1.5854    6.1229   10.6710 C.3         1 LGS       0.1113
      4 C6          1.0511    6.6135    9.3069 C.3         1 LGS       0.1120
      5 O6          2.1647    6.5972    8.4104 O.3         1 LGS      -0.2547
      6 C3          1.8473    6.4827   13.2157 C.3         1 LGS       0.1137
      7 O3          1.9695    7.6227   14.0723 O.3         1 LGS      -0.3864
      8 C2          3.2603    5.8592   12.9472 C.3         1 LGS       0.1318
      9 O2          3.1421    4.4348   12.8788 O.3         1 LGS      -0.3843
     10 C1          3.9059    6.3688   11.6230 C.3         1 LGS       0.1770
     11 O1          4.4177    7.6907   11.8164 O.3         1 LGS      -0.3666
     12 N1          2.9770    6.3552   10.5166 N.pl3       1 LGS      -0.2126
     13 C7          3.2533    6.6426    9.2279 C.2         1 LGS       0.2439
     14 N2          4.4904    6.9445    8.7738 N.2         1 LGS      -0.3607
     15 C8          4.8857    7.3124    7.4519 C.3         1 LGS      -0.0300
     16 C9          5.5413    8.7172    7.4993 C.3         1 LGS      -0.0515
     17 C10         6.2570    9.1555    6.1894 C.3         1 LGS      -0.0530
     18 C11         7.6300    8.4811    5.9053 C.3         1 LGS      -0.0531
     19 C12         8.7807    8.8070    6.9214 C.3         1 LGS      -0.0531
     20 C13         9.5795    7.5830    7.4513 C.3         1 LGS      -0.0533
     21 C14         8.7948    6.5676    8.3361 C.3         1 LGS      -0.0559
     22 C15         8.5412    7.0259    9.7904 C.3         1 LGS      -0.0653
     23 H1         -0.7851    6.9031   11.2845 H           1 LGS       0.2100
     24 H2          1.1409    7.9433   11.7560 H           1 LGS       0.0645
     25 H3          1.4059    5.0469   10.7704 H           1 LGS       0.0626
     26 H4          0.6599    7.6316    9.3650 H           1 LGS       0.0660
     27 H5          0.2702    5.9602    8.9245 H           1 LGS       0.0660
     28 H6          1.2654    5.7538   13.7868 H           1 LGS       0.0647
     29 H7          2.4284    8.3077   13.5411 H           1 LGS       0.2100
     30 H8          3.9305    6.0722   13.7859 H           1 LGS       0.0669
     31 H9          4.0386    4.0852   12.6826 H           1 LGS       0.2101
     32 H10         4.7623    5.7298   11.3840 H           1 LGS       0.0908
     33 H11         3.6373    8.2664   11.9595 H           1 LGS       0.2124
     34 H12         4.0383    7.3284    6.7573 H           1 LGS       0.0282
     35 H13         5.6004    6.5662    7.1002 H           1 LGS       0.0282
     36 H14         6.2502    8.7553    8.3315 H           1 LGS       0.0266
     37 H15         4.7581    9.4479    7.7228 H           1 LGS       0.0266
     38 H16         6.4089   10.2329    6.2258 H           1 LGS       0.0265
     39 H17         5.5842    8.9562    5.3459 H           1 LGS       0.0265
     40 H18         7.9510    8.8122    4.9099 H           1 LGS       0.0265
     41 H19         7.4807    7.4041    5.8162 H           1 LGS       0.0265
     42 H20         8.3999    9.3720    7.7739 H           1 LGS       0.0265
     43 H21         9.4923    9.4699    6.4220 H           1 LGS       0.0265
     44 H22        10.4325    7.9514    8.0277 H           1 LGS       0.0265
     45 H23         9.9843    7.0471    6.5908 H           1 LGS       0.0265
     46 H24         9.3701    5.6359    8.3795 H           1 LGS       0.0263
     47 H25         7.8345    6.3270    7.8681 H           1 LGS       0.0263
     48 H26         7.9071    6.2936   10.2973 H           1 LGS       0.0230
     49 H27         8.0382    7.9909    9.8257 H           1 LGS       0.0230
     50 H28         9.4826    7.1006   10.3308 H           1 LGS       0.0230
@<TRIPOS>BOND
     1     1     2   1
     2     2     3   1
     3     2     6   1
     4     3     4   1
     5     3    12   1
     6     4     5   1
     7     5    13   1
     8     6     7   1
     9     6     8   1
    10     8     9   1
    11     8    10   1
    12    10    11   1
    13    10    12   1
    14    12    13   1
    15    13    14   2
    16    14    15   1
    17    15    16   1
    18    16    17   1
    19    17    18   1
    20    18    19   1
    21    19    20   1
    22    20    21   1
    23    21    22   1
    24     1    23   1
    25     2    24   1
    26     3    25   1
    27     4    26   1
    28     4    27   1
    29     6    28   1
    30     7    29   1
    31     8    30   1
    32     9    31   1
    33    10    32   1
    34    11    33   1
    35    15    34   1
    36    15    35   1
    37    16    36   1
    38    16    37   1
    39    17    38   1
    40    17    39   1
    41    18    40   1
    42    18    41   1
    43    19    42   1
    44    19    43   1
    45    20    44   1
    46    20    45   1
    47    21    46   1
    48    21    47   1
    49    22    48   1
    50    22    49   1
    51    22    50   1
@<TRIPOS>SUBSTRUCTURE
     1  LGS      2

