@<TRIPOS>MOLECULE
2wca_ligand_080
    50    51
SMALL
GAST_HUCK
****
This file was generated by PARSER (from files_GN.cpp)

@<TRIPOS>ATOM
      1 C2         -6.2753  -23.4635   10.6789 C.3         1 NP6      -0.0632
      2 C1         -7.1320  -23.1125    9.4421 C.3         1 NP6      -0.0389
      3 C3         -8.6695  -23.1530    9.6897 C.3         1 NP6       0.0372
      4 C4         -9.2538  -21.8808   10.0790 C.2         1 NP6       0.1785
      5 O1         -9.7965  -21.2041    9.2112 O.2         1 NP6      -0.3969
      6 N1         -9.2360  -21.4580   11.3457 N.am        1 NP6      -0.2639
      7 C5         -9.9018  -20.2954   11.8906 C.3         1 NP6       0.1483
      8 C6        -11.4268  -20.5903   12.0628 C.3         1 NP6       0.1223
      9 O2        -11.6270  -21.4697   13.1700 O.3         1 NP6      -0.3842
     10 C7        -12.2744  -19.3112   12.2854 C.3         1 NP6       0.1187
     11 O3        -13.6655  -19.6196   12.2158 O.3         1 NP6      -0.3859
     12 C8        -11.8593  -18.2482   11.2272 C.3         1 NP6       0.1375
     13 C9        -12.6730  -16.9312   11.3228 C.3         1 NP6       0.0780
     14 O4        -12.7947  -16.4658   12.6656 O.3         1 NP6      -0.3919
     15 O5        -10.4466  -17.9670   11.3685 O.3         1 NP6      -0.2871
     16 C10        -9.6441  -19.0336   11.1838 C.2         1 NP6       0.1893
     17 N2         -8.6106  -18.9378   10.4238 N.2         1 NP6      -0.1541
     18 O6         -8.0448  -18.0125    9.7468 O.3         1 NP6      -0.1506
     19 C11        -8.0801  -16.6522    9.6931 C.2         1 NP6       0.3788
     20 O7         -8.7968  -15.9426   10.5885 O.2         1 NP6      -0.3643
     21 N3         -7.4030  -15.9537    8.7542 N.am        1 NP6      -0.2057
     22 C12        -6.6467  -16.4219    7.7196 C.ar        1 NP6       0.0683
     23 C13        -6.6195  -15.6310    6.5458 C.ar        1 NP6      -0.0414
     24 C14        -5.9046  -16.0510    5.4122 C.ar        1 NP6      -0.0756
     25 C15        -5.1807  -17.2549    5.4392 C.ar        1 NP6      -0.0773
     26 C16        -5.1613  -18.0314    6.6120 C.ar        1 NP6      -0.0756
     27 C17        -5.8804  -17.6102    7.7468 C.ar        1 NP6      -0.0414
     28 H1         -5.2158  -23.4308   10.4145 H           1 NP6       0.0231
     29 H2         -6.5109  -24.4722   11.0274 H           1 NP6       0.0231
     30 H3         -6.4544  -22.7561   11.4877 H           1 NP6       0.0231
     31 H4         -6.8833  -23.8406    8.6634 H           1 NP6       0.0287
     32 H5         -6.8322  -22.1309    9.0656 H           1 NP6       0.0287
     33 H6         -8.9187  -23.9057   10.4425 H           1 NP6       0.0502
     34 H7         -9.1410  -23.4910    8.7613 H           1 NP6       0.0502
     35 H8         -8.7707  -22.0234   11.9843 H           1 NP6       0.1888
     36 H9         -9.4949  -20.1390   12.8901 H           1 NP6       0.0821
     37 H10       -11.8171  -21.0927   11.1718 H           1 NP6       0.0672
     38 H11       -11.0011  -22.2116   13.0317 H           1 NP6       0.2103
     39 H12       -12.0655  -18.9324   13.2881 H           1 NP6       0.0653
     40 H13       -14.1009  -19.0093   12.8538 H           1 NP6       0.2100
     41 H14       -12.0336  -18.6469   10.2246 H           1 NP6       0.0708
     42 H15       -13.6737  -17.0940   10.9201 H           1 NP6       0.0588
     43 H16       -12.1863  -16.1539   10.7251 H           1 NP6       0.0588
     44 H17       -13.6321  -15.9518   12.6898 H           1 NP6       0.2095
     45 H18        -7.5545  -14.9939    8.7698 H           1 NP6       0.2276
     46 H19        -7.1499  -14.7550    6.5029 H           1 NP6       0.0501
     47 H20        -5.9157  -15.4775    4.5596 H           1 NP6       0.0577
     48 H21        -4.6654  -17.5638    4.6151 H           1 NP6       0.0487
     49 H22        -4.6235  -18.8984    6.6403 H           1 NP6       0.0577
     50 H23        -5.8181  -18.1769    8.5932 H           1 NP6       0.0501
@<TRIPOS>BOND
     1     1     2   1
     2     2     3   1
     3     3     4   1
     4     4     5   2
     5     4     6  am
     6     6     7   1
     7     7     8   1
     8     7    16   1
     9     8     9   1
    10     8    10   1
    11    10    11   1
    12    10    12   1
    13    12    13   1
    14    12    15   1
    15    13    14   1
    16    15    16   1
    17    16    17   2
    18    17    18   1
    19    18    19   1
    20    19    20   2
    21    19    21  am
    22    21    22   1
    23    22    23  ar
    24    22    27  ar
    25    23    24  ar
    26    24    25  ar
    27    25    26  ar
    28    26    27  ar
    29     1    28   1
    30     1    29   1
    31     1    30   1
    32     2    31   1
    33     2    32   1
    34     3    33   1
    35     3    34   1
    36     6    35   1
    37     7    36   1
    38     8    37   1
    39     9    38   1
    40    10    39   1
    41    11    40   1
    42    12    41   1
    43    13    42   1
    44    13    43   1
    45    14    44   1
    46    21    45   1
    47    23    46   1
    48    24    47   1
    49    25    48   1
    50    26    49   1
    51    27    50   1
@<TRIPOS>SUBSTRUCTURE
     1  NP6      1

