@<TRIPOS>MOLECULE
2wca_ligand_009
    50    51
SMALL
GAST_HUCK
****
This file was generated by PARSER (from files_GN.cpp)

@<TRIPOS>ATOM
      1 C2         -4.8457   -8.0918   10.9670 C.3         1 NP6      -0.0632
      2 C1         -5.6714   -7.1924   10.0209 C.3         1 NP6      -0.0389
      3 C3         -7.2132   -7.3489   10.1614 C.3         1 NP6       0.0372
      4 C4         -7.6870   -8.7243   10.2270 C.2         1 NP6       0.1785
      5 O1         -8.4395   -9.0778   11.1312 O.2         1 NP6      -0.3969
      6 N1         -7.3324   -9.5627    9.2674 N.am        1 NP6      -0.2639
      7 C5         -7.6442  -10.9600    9.1008 C.3         1 NP6       0.1483
      8 C6         -9.1542  -11.3291    9.2727 C.3         1 NP6       0.1223
      9 O2         -9.9802  -10.5462    8.4051 O.3         1 NP6      -0.3842
     10 C7         -9.3876  -12.8439    8.9632 C.3         1 NP6       0.1187
     11 O3        -10.7330  -13.2072    9.2937 O.3         1 NP6      -0.3859
     12 C8         -8.3651  -13.7148    9.7620 C.3         1 NP6       0.1375
     13 C9         -8.4077  -15.2073    9.3396 C.3         1 NP6       0.0780
     14 O4         -7.6491  -15.4173    8.1460 O.3         1 NP6      -0.3919
     15 O5         -7.0146  -13.2334    9.5804 O.3         1 NP6      -0.2871
     16 C10        -6.8243  -11.9196    9.8489 C.2         1 NP6       0.1893
     17 N2         -5.8766  -11.5778   10.6489 N.2         1 NP6      -0.1541
     18 O6         -5.1114  -12.4590   11.1546 O.3         1 NP6      -0.1506
     19 C11        -4.1409  -12.3681   12.0948 C.2         1 NP6       0.3788
     20 O7         -3.4774  -13.5134   12.3670 O.2         1 NP6      -0.3643
     21 N3         -3.8532  -11.1973   12.7104 N.am        1 NP6      -0.2057
     22 C12        -2.9569  -10.9444   13.7189 C.ar        1 NP6       0.0683
     23 C13        -2.3813   -9.6555   13.7566 C.ar        1 NP6      -0.0414
     24 C14        -1.4685   -9.2971   14.7675 C.ar        1 NP6      -0.0756
     25 C15        -1.1116  -10.2271   15.7596 C.ar        1 NP6      -0.0773
     26 C16        -1.6914  -11.5065   15.7595 C.ar        1 NP6      -0.0756
     27 C17        -2.6177  -11.8628   14.7531 C.ar        1 NP6      -0.0414
     28 H1         -3.7999   -7.7738   10.9745 H           1 NP6       0.0231
     29 H2         -4.8847   -9.1271   10.6231 H           1 NP6       0.0231
     30 H3         -5.2333   -8.0410   11.9883 H           1 NP6       0.0231
     31 H4         -5.3796   -7.4104    8.9941 H           1 NP6       0.0287
     32 H5         -5.4110   -6.1536   10.2226 H           1 NP6       0.0287
     33 H6         -7.6896   -6.8788    9.2942 H           1 NP6       0.0502
     34 H7         -7.5421   -6.7933   11.0455 H           1 NP6       0.0502
     35 H8         -6.7721   -9.1909    8.5689 H           1 NP6       0.1888
     36 H9         -7.4046  -11.1541    8.0484 H           1 NP6       0.0821
     37 H10        -9.4642  -11.1334   10.3056 H           1 NP6       0.0672
     38 H11        -9.9390   -9.6336    8.7537 H           1 NP6       0.2103
     39 H12        -9.2487  -13.0122    7.8864 H           1 NP6       0.0653
     40 H13       -10.7998  -13.0672   10.2669 H           1 NP6       0.2100
     41 H14        -8.6206  -13.6672   10.8228 H           1 NP6       0.0708
     42 H15        -9.4428  -15.5262    9.1653 H           1 NP6       0.0588
     43 H16        -7.9853  -15.8329   10.1312 H           1 NP6       0.0588
     44 H17        -8.2066  -15.9751    7.5541 H           1 NP6       0.2095
     45 H18        -4.3025  -10.4114   12.3645 H           1 NP6       0.2276
     46 H19        -2.6262   -8.9709   13.0396 H           1 NP6       0.0501
     47 H20        -1.0609   -8.3613   14.7687 H           1 NP6       0.0577
     48 H21        -0.4457   -9.9663   16.4858 H           1 NP6       0.0487
     49 H22        -1.4541  -12.1759   16.4976 H           1 NP6       0.0577
     50 H23        -3.0602  -12.7935   14.8076 H           1 NP6       0.0501
@<TRIPOS>BOND
     1     1     2   1
     2     2     3   1
     3     3     4   1
     4     4     5   2
     5     4     6  am
     6     6     7   1
     7     7     8   1
     8     7    16   1
     9     8     9   1
    10     8    10   1
    11    10    11   1
    12    10    12   1
    13    12    13   1
    14    12    15   1
    15    13    14   1
    16    15    16   1
    17    16    17   2
    18    17    18   1
    19    18    19   1
    20    19    20   2
    21    19    21  am
    22    21    22   1
    23    22    23  ar
    24    22    27  ar
    25    23    24  ar
    26    24    25  ar
    27    25    26  ar
    28    26    27  ar
    29     1    28   1
    30     1    29   1
    31     1    30   1
    32     2    31   1
    33     2    32   1
    34     3    33   1
    35     3    34   1
    36     6    35   1
    37     7    36   1
    38     8    37   1
    39     9    38   1
    40    10    39   1
    41    11    40   1
    42    12    41   1
    43    13    42   1
    44    13    43   1
    45    14    44   1
    46    21    45   1
    47    23    46   1
    48    24    47   1
    49    25    48   1
    50    26    49   1
    51    27    50   1
@<TRIPOS>SUBSTRUCTURE
     1  NP6      1

