@<TRIPOS>MOLECULE
2wca_ligand_008
    50    51
SMALL
GAST_HUCK
****
This file was generated by PARSER (from files_GN.cpp)

@<TRIPOS>ATOM
      1 C2         -3.3437  -13.0793   13.0735 C.3         1 NP6      -0.0632
      2 C1         -3.3821  -11.5841   12.6823 C.3         1 NP6      -0.0389
      3 C3         -4.7756  -10.9053   12.7847 C.3         1 NP6       0.0372
      4 C4         -5.7167  -11.1162   11.7010 C.2         1 NP6       0.1785
      5 O1         -5.5732  -12.0527   10.9101 O.2         1 NP6      -0.3969
      6 N1         -6.6634  -10.2039   11.4904 N.am        1 NP6      -0.2639
      7 C5         -7.6367  -10.1580   10.4168 C.3         1 NP6       0.1483
      8 C6         -8.7022  -11.2813   10.6139 C.3         1 NP6       0.1223
      9 O2         -9.4620  -10.9976   11.7910 O.3         1 NP6      -0.3842
     10 C7         -9.6508  -11.3997    9.3824 C.3         1 NP6       0.1187
     11 O3        -10.4743  -12.5569    9.4859 O.3         1 NP6      -0.3859
     12 C8         -8.8014  -11.4875    8.0857 C.3         1 NP6       0.1375
     13 C9         -9.6447  -11.4710    6.7794 C.3         1 NP6       0.0780
     14 O4        -10.1799  -10.1822    6.5227 O.3         1 NP6      -0.3919
     15 O5         -7.8548  -10.4018    8.0067 O.3         1 NP6      -0.2871
     16 C10        -7.0606  -10.1984    9.0790 C.2         1 NP6       0.1893
     17 N2         -5.9021   -9.6854    8.8687 N.2         1 NP6      -0.1541
     18 O6         -5.2234   -9.6966    7.7913 O.3         1 NP6      -0.1506
     19 C11        -4.9203  -10.7208    6.9534 C.2         1 NP6       0.3788
     20 O7         -4.2296  -10.3905    5.8405 O.2         1 NP6      -0.3643
     21 N3         -5.2323  -12.0070    7.2925 N.am        1 NP6      -0.2057
     22 C12        -4.8588  -13.1749    6.6920 C.ar        1 NP6       0.0683
     23 C13        -5.7178  -14.2887    6.8171 C.ar        1 NP6      -0.0414
     24 C14        -5.3822  -15.5349    6.2398 C.ar        1 NP6      -0.0756
     25 C15        -4.1762  -15.6785    5.5436 C.ar        1 NP6      -0.0773
     26 C16        -3.2946  -14.5907    5.4319 C.ar        1 NP6      -0.0756
     27 C17        -3.6285  -13.3484    6.0031 C.ar        1 NP6      -0.0414
     28 H1         -2.3076  -13.4205   13.1067 H           1 NP6       0.0231
     29 H2         -3.8825  -13.6853   12.3456 H           1 NP6       0.0231
     30 H3         -3.7855  -13.2269   14.0612 H           1 NP6       0.0231
     31 H4         -3.0069  -11.4821   11.6570 H           1 NP6       0.0287
     32 H5         -2.6926  -11.0483   13.3332 H           1 NP6       0.0287
     33 H6         -4.5816   -9.8325   12.8493 H           1 NP6       0.0502
     34 H7         -5.2616  -11.1964   13.7236 H           1 NP6       0.0502
     35 H8         -6.6975   -9.4642   12.1316 H           1 NP6       0.1888
     36 H9         -8.1502   -9.1947   10.5068 H           1 NP6       0.0821
     37 H10        -8.2025  -12.2435   10.7556 H           1 NP6       0.0672
     38 H11        -8.7927  -10.9876   12.5224 H           1 NP6       0.2103
     39 H12       -10.2879  -10.5071    9.3364 H           1 NP6       0.0653
     40 H13       -10.9117  -12.4850   10.3598 H           1 NP6       0.2100
     41 H14        -8.2422  -12.4352    8.0968 H           1 NP6       0.0708
     42 H15       -10.4585  -12.1999    6.8465 H           1 NP6       0.0588
     43 H16        -9.0071  -11.7425    5.9401 H           1 NP6       0.0588
     44 H17       -10.8329  -10.3237    5.7943 H           1 NP6       0.2095
     45 H18        -5.7977  -12.1109    8.0716 H           1 NP6       0.2276
     46 H19        -6.5986  -14.2065    7.3308 H           1 NP6       0.0501
     47 H20        -6.0238  -16.3198    6.3304 H           1 NP6       0.0577
     48 H21        -3.9318  -16.5757    5.1300 H           1 NP6       0.0487
     49 H22        -2.4088  -14.6946    4.9367 H           1 NP6       0.0577
     50 H23        -2.9489  -12.5852    5.9501 H           1 NP6       0.0501
@<TRIPOS>BOND
     1     1     2   1
     2     2     3   1
     3     3     4   1
     4     4     5   2
     5     4     6  am
     6     6     7   1
     7     7     8   1
     8     7    16   1
     9     8     9   1
    10     8    10   1
    11    10    11   1
    12    10    12   1
    13    12    13   1
    14    12    15   1
    15    13    14   1
    16    15    16   1
    17    16    17   2
    18    17    18   1
    19    18    19   1
    20    19    20   2
    21    19    21  am
    22    21    22   1
    23    22    23  ar
    24    22    27  ar
    25    23    24  ar
    26    24    25  ar
    27    25    26  ar
    28    26    27  ar
    29     1    28   1
    30     1    29   1
    31     1    30   1
    32     2    31   1
    33     2    32   1
    34     3    33   1
    35     3    34   1
    36     6    35   1
    37     7    36   1
    38     8    37   1
    39     9    38   1
    40    10    39   1
    41    11    40   1
    42    12    41   1
    43    13    42   1
    44    13    43   1
    45    14    44   1
    46    21    45   1
    47    23    46   1
    48    24    47   1
    49    25    48   1
    50    26    49   1
    51    27    50   1
@<TRIPOS>SUBSTRUCTURE
     1  NP6      1

