@<TRIPOS>MOLECULE
2wca_ligand_025
    50    51
SMALL
GAST_HUCK
****
This file was generated by PARSER (from files_GN.cpp)

@<TRIPOS>ATOM
      1 C2        -11.2442  -10.8931    4.5321 C.3         1 NP6      -0.0632
      2 C1        -11.4174  -12.3377    4.0139 C.3         1 NP6      -0.0389
      3 C3        -10.3626  -13.3651    4.5234 C.3         1 NP6       0.0372
      4 C4         -9.9760  -13.2601    5.9188 C.2         1 NP6       0.1785
      5 O1        -10.8409  -13.0270    6.7543 O.2         1 NP6      -0.3969
      6 N1         -8.7127  -13.4899    6.2616 N.am        1 NP6      -0.2639
      7 C5         -8.0782  -13.3213    7.5407 C.3         1 NP6       0.1483
      8 C6         -8.6856  -14.1791    8.7023 C.3         1 NP6       0.1223
      9 O2         -8.4802  -15.5691    8.4493 O.3         1 NP6      -0.3842
     10 C7         -8.0577  -13.8177   10.0820 C.3         1 NP6       0.1187
     11 O3         -8.7826  -14.4591   11.1324 O.3         1 NP6      -0.3859
     12 C8         -8.0462  -12.2631   10.2387 C.3         1 NP6       0.1375
     13 C9         -7.3538  -11.7346   11.5150 C.3         1 NP6       0.0780
     14 O4         -7.2223  -10.3134   11.4505 O.3         1 NP6      -0.3919
     15 O5         -7.3231  -11.6887    9.1243 O.3         1 NP6      -0.2871
     16 C10        -7.9095  -11.9221    7.9431 C.2         1 NP6       0.1893
     17 N2         -8.2865  -10.9073    7.2442 N.2         1 NP6      -0.1541
     18 O6         -8.0959   -9.6483    7.4816 O.3         1 NP6      -0.1506
     19 C11        -7.1281   -8.9853    8.1819 C.2         1 NP6       0.3788
     20 O7         -7.3392   -7.6795    8.4704 O.2         1 NP6      -0.3643
     21 N3         -5.9487   -9.5899    8.4589 N.am        1 NP6      -0.2057
     22 C12        -4.9513   -9.1884    9.3034 C.ar        1 NP6       0.0683
     23 C13        -5.1903   -8.5581   10.5477 C.ar        1 NP6      -0.0414
     24 C14        -4.1422   -8.3666   11.4672 C.ar        1 NP6      -0.0756
     25 C15        -2.8358   -8.7840   11.1483 C.ar        1 NP6      -0.0773
     26 C16        -2.5817   -9.3946    9.9074 C.ar        1 NP6      -0.0756
     27 C17        -3.6363   -9.6085    8.9983 C.ar        1 NP6      -0.0414
     28 H1        -11.9404  -10.2378    4.0048 H           1 NP6       0.0231
     29 H2        -10.2228  -10.5477    4.3566 H           1 NP6       0.0231
     30 H3        -11.4618  -10.8302    5.6001 H           1 NP6       0.0231
     31 H4        -11.3621  -12.3032    2.9213 H           1 NP6       0.0287
     32 H5        -12.4182  -12.6835    4.2858 H           1 NP6       0.0287
     33 H6         -9.4779  -13.2714    3.8857 H           1 NP6       0.0502
     34 H7        -10.7603  -14.3713    4.3694 H           1 NP6       0.0502
     35 H8         -8.1238  -13.7614    5.5401 H           1 NP6       0.1888
     36 H9         -7.0566  -13.6833    7.3949 H           1 NP6       0.0821
     37 H10        -9.7588  -14.0092    8.7739 H           1 NP6       0.0672
     38 H11        -8.7055  -15.7222    7.5076 H           1 NP6       0.2103
     39 H12        -7.0307  -14.1845   10.1054 H           1 NP6       0.0653
     40 H13        -9.4539  -13.8090   11.4240 H           1 NP6       0.2100
     41 H14        -9.0842  -11.8953   10.2537 H           1 NP6       0.0708
     42 H15        -6.3570  -12.1734   11.6134 H           1 NP6       0.0588
     43 H16        -7.9499  -11.9979   12.3919 H           1 NP6       0.0588
     44 H17        -7.1137  -10.0165   12.3775 H           1 NP6       0.2095
     45 H18        -5.7934  -10.4260    7.9974 H           1 NP6       0.2276
     46 H19        -6.1393   -8.3004   10.8253 H           1 NP6       0.0501
     47 H20        -4.3338   -7.9652   12.3851 H           1 NP6       0.0577
     48 H21        -2.0803   -8.6820   11.8316 H           1 NP6       0.0487
     49 H22        -1.6355   -9.7183    9.6803 H           1 NP6       0.0577
     50 H23        -3.4408  -10.0964    8.1182 H           1 NP6       0.0501
@<TRIPOS>BOND
     1     1     2   1
     2     2     3   1
     3     3     4   1
     4     4     5   2
     5     4     6  am
     6     6     7   1
     7     7     8   1
     8     7    16   1
     9     8     9   1
    10     8    10   1
    11    10    11   1
    12    10    12   1
    13    12    13   1
    14    12    15   1
    15    13    14   1
    16    15    16   1
    17    16    17   2
    18    17    18   1
    19    18    19   1
    20    19    20   2
    21    19    21  am
    22    21    22   1
    23    22    23  ar
    24    22    27  ar
    25    23    24  ar
    26    24    25  ar
    27    25    26  ar
    28    26    27  ar
    29     1    28   1
    30     1    29   1
    31     1    30   1
    32     2    31   1
    33     2    32   1
    34     3    33   1
    35     3    34   1
    36     6    35   1
    37     7    36   1
    38     8    37   1
    39     9    38   1
    40    10    39   1
    41    11    40   1
    42    12    41   1
    43    13    42   1
    44    13    43   1
    45    14    44   1
    46    21    45   1
    47    23    46   1
    48    24    47   1
    49    25    48   1
    50    26    49   1
    51    27    50   1
@<TRIPOS>SUBSTRUCTURE
     1  NP6      1

