@<TRIPOS>MOLECULE
2wca_ligand_015
    50    51
SMALL
GAST_HUCK
****
This file was generated by PARSER (from files_GN.cpp)

@<TRIPOS>ATOM
      1 C2        -15.1737  -16.5327    9.7375 C.3         1 NP6      -0.0632
      2 C1        -14.2057  -15.8106   10.7061 C.3         1 NP6      -0.0389
      3 C3        -13.6646  -16.6921   11.8727 C.3         1 NP6       0.0372
      4 C4        -12.8164  -17.7931   11.4444 C.2         1 NP6       0.1785
      5 O1        -13.2063  -18.9466   11.6173 O.2         1 NP6      -0.3969
      6 N1        -11.6384  -17.5177   10.8837 N.am        1 NP6      -0.2639
      7 C5        -10.7007  -18.4153   10.2450 C.3         1 NP6       0.1483
      8 C6        -10.4179  -19.7693   10.9893 C.3         1 NP6       0.1223
      9 O2        -11.6030  -20.5876   11.0152 O.3         1 NP6      -0.3842
     10 C7         -9.2854  -20.5793   10.2750 C.3         1 NP6       0.1187
     11 O3         -8.9401  -21.7365   11.0555 O.3         1 NP6      -0.3859
     12 C8         -8.0346  -19.6626   10.0520 C.3         1 NP6       0.1375
     13 C9         -6.9222  -20.3212    9.1894 C.3         1 NP6       0.0780
     14 O4         -6.5540  -21.6215    9.6590 O.3         1 NP6      -0.3919
     15 O5         -8.4460  -18.4463    9.3670 O.3         1 NP6      -0.2871
     16 C10        -9.4120  -17.7519    9.9908 C.2         1 NP6       0.1893
     17 N2         -9.2062  -16.5087   10.2365 N.2         1 NP6      -0.1541
     18 O6         -8.1591  -15.8861    9.8548 O.3         1 NP6      -0.1506
     19 C11        -7.9471  -14.5506    9.8791 C.2         1 NP6       0.3788
     20 O7         -6.7781  -14.1384    9.3276 O.2         1 NP6      -0.3643
     21 N3         -8.8164  -13.6690   10.4237 N.am        1 NP6      -0.2057
     22 C12        -8.7112  -12.3205   10.3019 C.ar        1 NP6       0.0683
     23 C13        -9.0428  -11.6741    9.0847 C.ar        1 NP6      -0.0414
     24 C14        -8.9724  -10.2768    8.9745 C.ar        1 NP6      -0.0756
     25 C15        -8.5807   -9.5010   10.0818 C.ar        1 NP6      -0.0773
     26 C16        -8.2562  -10.1325   11.2971 C.ar        1 NP6      -0.0756
     27 C17        -8.3410  -11.5323   11.4123 C.ar        1 NP6      -0.0414
     28 H1        -15.6261  -15.7936    9.0624 H           1 NP6       0.0231
     29 H2        -15.9734  -17.0474   10.2941 H           1 NP6       0.0231
     30 H3        -14.6180  -17.2676    9.1382 H           1 NP6       0.0231
     31 H4        -14.7461  -14.9635   11.1500 H           1 NP6       0.0287
     32 H5        -13.3602  -15.4016   10.1348 H           1 NP6       0.0287
     33 H6        -14.5275  -17.0687   12.4399 H           1 NP6       0.0502
     34 H7        -13.0813  -16.0572   12.5516 H           1 NP6       0.0502
     35 H8        -11.4411  -16.5682   10.8012 H           1 NP6       0.1888
     36 H9        -11.1095  -18.6508    9.2606 H           1 NP6       0.0821
     37 H10       -10.1141  -19.5571   12.0273 H           1 NP6       0.0672
     38 H11       -11.3298  -21.4474   11.4117 H           1 NP6       0.2103
     39 H12        -9.6484  -20.9184    9.2926 H           1 NP6       0.0653
     40 H13        -9.7365  -22.3090   11.0347 H           1 NP6       0.2100
     41 H14        -7.5995  -19.4060   11.0313 H           1 NP6       0.0708
     42 H15        -6.0331  -19.6806    9.2198 H           1 NP6       0.0588
     43 H16        -7.2571  -20.3931    8.1474 H           1 NP6       0.0588
     44 H17        -5.8709  -21.9285    9.0258 H           1 NP6       0.2095
     45 H18        -9.5711  -14.0142   10.9286 H           1 NP6       0.2276
     46 H19        -9.3433  -12.2259    8.2789 H           1 NP6       0.0501
     47 H20        -9.2244   -9.8230    8.0930 H           1 NP6       0.0577
     48 H21        -8.5332   -8.4840    9.9970 H           1 NP6       0.0487
     49 H22        -7.9803   -9.5609   12.1000 H           1 NP6       0.0577
     50 H23        -8.1088  -11.9735   12.3087 H           1 NP6       0.0501
@<TRIPOS>BOND
     1     1     2   1
     2     2     3   1
     3     3     4   1
     4     4     5   2
     5     4     6  am
     6     6     7   1
     7     7     8   1
     8     7    16   1
     9     8     9   1
    10     8    10   1
    11    10    11   1
    12    10    12   1
    13    12    13   1
    14    12    15   1
    15    13    14   1
    16    15    16   1
    17    16    17   2
    18    17    18   1
    19    18    19   1
    20    19    20   2
    21    19    21  am
    22    21    22   1
    23    22    23  ar
    24    22    27  ar
    25    23    24  ar
    26    24    25  ar
    27    25    26  ar
    28    26    27  ar
    29     1    28   1
    30     1    29   1
    31     1    30   1
    32     2    31   1
    33     2    32   1
    34     3    33   1
    35     3    34   1
    36     6    35   1
    37     7    36   1
    38     8    37   1
    39     9    38   1
    40    10    39   1
    41    11    40   1
    42    12    41   1
    43    13    42   1
    44    13    43   1
    45    14    44   1
    46    21    45   1
    47    23    46   1
    48    24    47   1
    49    25    48   1
    50    26    49   1
    51    27    50   1
@<TRIPOS>SUBSTRUCTURE
     1  NP6      1

