@<TRIPOS>MOLECULE
2wca_ligand_038
    50    51
SMALL
GAST_HUCK
****
This file was generated by PARSER (from files_GN.cpp)

@<TRIPOS>ATOM
      1 C2         -5.6067  -16.3317    5.3067 C.3         1 NP6      -0.0632
      2 C1         -6.2453  -15.0182    5.8080 C.3         1 NP6      -0.0389
      3 C3         -7.0213  -15.1547    7.1539 C.3         1 NP6       0.0372
      4 C4         -6.5445  -14.2554    8.1913 C.2         1 NP6       0.1785
      5 O1         -5.5450  -14.5767    8.8249 O.2         1 NP6      -0.3969
      6 N1         -7.1548  -13.0953    8.3937 N.am        1 NP6      -0.2639
      7 C5         -6.8244  -12.0871    9.3657 C.3         1 NP6       0.1483
      8 C6         -8.0557  -11.8647   10.2918 C.3         1 NP6       0.1223
      9 O2         -8.1326  -12.9225   11.2494 O.3         1 NP6      -0.3842
     10 C7         -7.9700  -10.4878   10.9932 C.3         1 NP6       0.1187
     11 O3         -9.1035  -10.2968   11.8385 O.3         1 NP6      -0.3859
     12 C8         -7.9171   -9.3986    9.8814 C.3         1 NP6       0.1375
     13 C9         -7.7554   -7.9628   10.4412 C.3         1 NP6       0.0780
     14 O4         -6.5106   -7.7659   11.1056 O.3         1 NP6      -0.3919
     15 O5         -6.8746   -9.6330    8.9094 O.3         1 NP6      -0.2871
     16 C10        -6.3929  -10.8727    8.6690 C.2         1 NP6       0.1893
     17 N2         -5.2803  -10.9320    8.0347 N.2         1 NP6      -0.1541
     18 O6         -4.7532  -10.0024    7.3435 O.3         1 NP6      -0.1506
     19 C11        -3.4218   -9.7577    7.2103 C.2         1 NP6       0.3788
     20 O7         -3.0657   -8.8675    6.2583 O.2         1 NP6      -0.3643
     21 N3         -2.4313  -10.2033    8.0220 N.am        1 NP6      -0.2057
     22 C12        -2.6349  -10.8277    9.2130 C.ar        1 NP6       0.0683
     23 C13        -2.8312  -12.2244    9.2771 C.ar        1 NP6      -0.0414
     24 C14        -3.0851  -12.8480   10.5141 C.ar        1 NP6      -0.0756
     25 C15        -3.1297  -12.0819   11.6936 C.ar        1 NP6      -0.0773
     26 C16        -2.9026  -10.6943   11.6404 C.ar        1 NP6      -0.0756
     27 C17        -2.6440  -10.0689   10.4054 C.ar        1 NP6      -0.0414
     28 H1         -5.0926  -16.1585    4.3592 H           1 NP6       0.0231
     29 H2         -6.3765  -17.0917    5.1531 H           1 NP6       0.0231
     30 H3         -4.8801  -16.7007    6.0339 H           1 NP6       0.0231
     31 H4         -6.9345  -14.6652    5.0345 H           1 NP6       0.0287
     32 H5         -5.4470  -14.2750    5.8949 H           1 NP6       0.0287
     33 H6         -6.9677  -16.1815    7.5298 H           1 NP6       0.0502
     34 H7         -8.0825  -14.9608    6.9652 H           1 NP6       0.0502
     35 H8         -7.9154  -12.9019    7.8245 H           1 NP6       0.1888
     36 H9         -5.9938  -12.4047   10.0037 H           1 NP6       0.0821
     37 H10        -8.9754  -11.8981    9.7004 H           1 NP6       0.0672
     38 H11        -8.9700  -12.7693   11.7375 H           1 NP6       0.2103
     39 H12        -7.0603  -10.4477   11.6014 H           1 NP6       0.0653
     40 H13        -8.7318  -10.1174   12.7279 H           1 NP6       0.2100
     41 H14        -8.8635   -9.4259    9.3320 H           1 NP6       0.0708
     42 H15        -8.5606   -7.7332   11.1363 H           1 NP6       0.0588
     43 H16        -7.8106   -7.2517    9.6169 H           1 NP6       0.0588
     44 H17        -6.5581   -8.2849   11.9376 H           1 NP6       0.2095
     45 H18        -1.5486   -9.8194    7.8719 H           1 NP6       0.2276
     46 H19        -2.8222  -12.7882    8.4231 H           1 NP6       0.0501
     47 H20        -3.2529  -13.8532   10.5521 H           1 NP6       0.0577
     48 H21        -3.3266  -12.5309   12.5890 H           1 NP6       0.0487
     49 H22        -2.9313  -10.1378   12.4951 H           1 NP6       0.0577
     50 H23        -2.4958   -9.0578   10.3712 H           1 NP6       0.0501
@<TRIPOS>BOND
     1     1     2   1
     2     2     3   1
     3     3     4   1
     4     4     5   2
     5     4     6  am
     6     6     7   1
     7     7     8   1
     8     7    16   1
     9     8     9   1
    10     8    10   1
    11    10    11   1
    12    10    12   1
    13    12    13   1
    14    12    15   1
    15    13    14   1
    16    15    16   1
    17    16    17   2
    18    17    18   1
    19    18    19   1
    20    19    20   2
    21    19    21  am
    22    21    22   1
    23    22    23  ar
    24    22    27  ar
    25    23    24  ar
    26    24    25  ar
    27    25    26  ar
    28    26    27  ar
    29     1    28   1
    30     1    29   1
    31     1    30   1
    32     2    31   1
    33     2    32   1
    34     3    33   1
    35     3    34   1
    36     6    35   1
    37     7    36   1
    38     8    37   1
    39     9    38   1
    40    10    39   1
    41    11    40   1
    42    12    41   1
    43    13    42   1
    44    13    43   1
    45    14    44   1
    46    21    45   1
    47    23    46   1
    48    24    47   1
    49    25    48   1
    50    26    49   1
    51    27    50   1
@<TRIPOS>SUBSTRUCTURE
     1  NP6      1

