@<TRIPOS>MOLECULE
2wca_ligand_043
    50    51
SMALL
GAST_HUCK
****
This file was generated by PARSER (from files_GN.cpp)

@<TRIPOS>ATOM
      1 C2        -12.4792  -10.6841    1.8178 C.3         1 NP6      -0.0632
      2 C1        -11.4874  -11.3193    2.8206 C.3         1 NP6      -0.0389
      3 C3        -12.1331  -11.5949    4.2039 C.3         1 NP6       0.0372
      4 C4        -11.1712  -11.5934    5.2952 C.2         1 NP6       0.1785
      5 O1        -10.7116  -10.5165    5.6604 O.2         1 NP6      -0.3969
      6 N1        -10.7808  -12.7336    5.8557 N.am        1 NP6      -0.2639
      7 C5         -9.8259  -12.8849    6.9270 C.3         1 NP6       0.1483
      8 C6         -8.3826  -13.0055    6.3385 C.3         1 NP6       0.1223
      9 O2         -7.9642  -11.7396    5.8282 O.3         1 NP6      -0.3842
     10 C7         -7.3383  -13.4733    7.3945 C.3         1 NP6       0.1187
     11 O3         -6.1069  -13.8483    6.7734 O.3         1 NP6      -0.3859
     12 C8         -7.8936  -14.6906    8.1875 C.3         1 NP6       0.1375
     13 C9         -7.0016  -15.0771    9.3919 C.3         1 NP6       0.0780
     14 O4         -5.9298  -15.9262    8.9967 O.3         1 NP6      -0.3919
     15 O5         -9.2095  -14.4018    8.6964 O.3         1 NP6      -0.2871
     16 C10       -10.1173  -14.0384    7.7730 C.2         1 NP6       0.1893
     17 N2        -11.3236  -14.4447    7.9457 N.2         1 NP6      -0.1541
     18 O6        -11.7537  -15.3889    8.6981 O.3         1 NP6      -0.1506
     19 C11       -11.2243  -16.5992    9.0141 C.2         1 NP6       0.3788
     20 O7        -11.8720  -17.2984    9.9754 O.2         1 NP6      -0.3643
     21 N3        -10.2030  -17.1462    8.3121 N.am        1 NP6      -0.2057
     22 C12        -9.7253  -18.3965    8.5212 C.ar        1 NP6       0.0683
     23 C13        -8.9214  -18.7101    9.6393 C.ar        1 NP6      -0.0414
     24 C14        -8.4763  -20.0281    9.8449 C.ar        1 NP6      -0.0756
     25 C15        -8.8454  -21.0433    8.9440 C.ar        1 NP6      -0.0773
     26 C16        -9.6363  -20.7355    7.8219 C.ar        1 NP6      -0.0756
     27 C17       -10.0564  -19.4111    7.5982 C.ar        1 NP6      -0.0414
     28 H1        -11.9847  -10.5063    0.8610 H           1 NP6       0.0231
     29 H2        -12.8395   -9.7262    2.1992 H           1 NP6       0.0231
     30 H3        -13.3339  -11.3440    1.6540 H           1 NP6       0.0231
     31 H4        -10.6391  -10.6406    2.9329 H           1 NP6       0.0287
     32 H5        -11.1169  -12.2600    2.4082 H           1 NP6       0.0287
     33 H6        -12.6610  -12.5523    4.1613 H           1 NP6       0.0502
     34 H7        -12.8825  -10.8272    4.4025 H           1 NP6       0.0502
     35 H8        -11.1530  -13.5523    5.4873 H           1 NP6       0.1888
     36 H9         -9.8584  -12.0140    7.5904 H           1 NP6       0.0821
     37 H10        -8.3860  -13.7234    5.5118 H           1 NP6       0.0672
     38 H11        -8.6976  -11.4312    5.2580 H           1 NP6       0.2103
     39 H12        -7.1452  -12.6492    8.0873 H           1 NP6       0.0653
     40 H13        -6.0993  -13.4108    5.8991 H           1 NP6       0.2100
     41 H14        -7.9526  -15.5578    7.5217 H           1 NP6       0.0708
     42 H15        -7.5957  -15.6044   10.1408 H           1 NP6       0.0588
     43 H16        -6.5864  -14.1790    9.8525 H           1 NP6       0.0588
     44 H17        -6.3524  -16.7786    8.7616 H           1 NP6       0.2095
     45 H18        -9.9007  -16.6957    7.5048 H           1 NP6       0.2276
     46 H19        -8.6578  -17.9792   10.3058 H           1 NP6       0.0501
     47 H20        -7.8901  -20.2446   10.6536 H           1 NP6       0.0577
     48 H21        -8.5382  -22.0032    9.1049 H           1 NP6       0.0487
     49 H22        -9.9143  -21.4749    7.1741 H           1 NP6       0.0577
     50 H23       -10.6491  -19.2031    6.7890 H           1 NP6       0.0501
@<TRIPOS>BOND
     1     1     2   1
     2     2     3   1
     3     3     4   1
     4     4     5   2
     5     4     6  am
     6     6     7   1
     7     7     8   1
     8     7    16   1
     9     8     9   1
    10     8    10   1
    11    10    11   1
    12    10    12   1
    13    12    13   1
    14    12    15   1
    15    13    14   1
    16    15    16   1
    17    16    17   2
    18    17    18   1
    19    18    19   1
    20    19    20   2
    21    19    21  am
    22    21    22   1
    23    22    23  ar
    24    22    27  ar
    25    23    24  ar
    26    24    25  ar
    27    25    26  ar
    28    26    27  ar
    29     1    28   1
    30     1    29   1
    31     1    30   1
    32     2    31   1
    33     2    32   1
    34     3    33   1
    35     3    34   1
    36     6    35   1
    37     7    36   1
    38     8    37   1
    39     9    38   1
    40    10    39   1
    41    11    40   1
    42    12    41   1
    43    13    42   1
    44    13    43   1
    45    14    44   1
    46    21    45   1
    47    23    46   1
    48    24    47   1
    49    25    48   1
    50    26    49   1
    51    27    50   1
@<TRIPOS>SUBSTRUCTURE
     1  NP6      1

