@<TRIPOS>MOLECULE
2wca_ligand_055
    50    51
SMALL
GAST_HUCK
****
This file was generated by PARSER (from files_GN.cpp)

@<TRIPOS>ATOM
      1 C2        -10.8774  -14.6826    7.4906 C.3         1 NP6      -0.0632
      2 C1        -10.8180  -15.8928    8.4519 C.3         1 NP6      -0.0389
      3 C3         -9.7687  -15.7762    9.5941 C.3         1 NP6       0.0372
      4 C4         -8.5000  -15.1783    9.2223 C.2         1 NP6       0.1785
      5 O1         -8.0380  -14.2870    9.9280 O.2         1 NP6      -0.3969
      6 N1         -7.8637  -15.5707    8.1207 N.am        1 NP6      -0.2639
      7 C5         -6.6272  -15.0504    7.5943 C.3         1 NP6       0.1483
      8 C6         -5.4331  -15.3217    8.5624 C.3         1 NP6       0.1223
      9 O2         -5.1437  -16.7207    8.5883 O.3         1 NP6      -0.3842
     10 C7         -4.1815  -14.5221    8.1026 C.3         1 NP6       0.1187
     11 O3         -3.1031  -14.6993    9.0304 O.3         1 NP6      -0.3859
     12 C8         -4.5545  -13.0015    7.9566 C.3         1 NP6       0.1375
     13 C9         -3.7616  -12.2859    6.8274 C.3         1 NP6       0.0780
     14 O4         -3.6012  -13.1004    5.6667 O.3         1 NP6      -0.3919
     15 O5         -5.9678  -12.7117    7.8250 O.3         1 NP6      -0.2871
     16 C10        -6.7364  -13.6379    7.2284 C.2         1 NP6       0.1893
     17 N2         -7.6270  -13.2707    6.3774 N.2         1 NP6      -0.1541
     18 O6         -8.0271  -12.0906    6.0637 O.3         1 NP6      -0.1506
     19 C11        -8.1858  -10.9726    6.8257 C.2         1 NP6       0.3788
     20 O7         -8.4984   -9.8356    6.1666 O.2         1 NP6      -0.3643
     21 N3         -8.1376  -11.0524    8.1781 N.am        1 NP6      -0.2057
     22 C12        -8.1802  -10.0689    9.1193 C.ar        1 NP6       0.0683
     23 C13        -7.7067   -8.7494    8.9239 C.ar        1 NP6      -0.0414
     24 C14        -7.7001   -7.8266    9.9885 C.ar        1 NP6      -0.0756
     25 C15        -8.1428   -8.2157   11.2640 C.ar        1 NP6      -0.0773
     26 C16        -8.6078   -9.5246   11.4722 C.ar        1 NP6      -0.0756
     27 C17        -8.6192  -10.4469   10.4081 C.ar        1 NP6      -0.0414
     28 H1        -11.7741  -14.7428    6.8700 H           1 NP6       0.0231
     29 H2        -10.0057  -14.6819    6.8332 H           1 NP6       0.0231
     30 H3        -10.8996  -13.7463    8.0505 H           1 NP6       0.0231
     31 H4        -10.6230  -16.7964    7.8680 H           1 NP6       0.0287
     32 H5        -11.8023  -16.0132    8.9128 H           1 NP6       0.0287
     33 H6         -9.5637  -16.7786    9.9759 H           1 NP6       0.0502
     34 H7        -10.2202  -15.2074   10.4125 H           1 NP6       0.0502
     35 H8         -8.3073  -16.2302    7.5649 H           1 NP6       0.1888
     36 H9         -6.4186  -15.5980    6.6675 H           1 NP6       0.0821
     37 H10        -5.6974  -15.0123    9.5790 H           1 NP6       0.0672
     38 H11        -4.5337  -16.8406    9.3451 H           1 NP6       0.2103
     39 H12        -3.8580  -14.9353    7.1355 H           1 NP6       0.0653
     40 H13        -2.3293  -14.2721    8.5994 H           1 NP6       0.2100
     41 H14        -4.2668  -12.5070    8.8865 H           1 NP6       0.0708
     42 H15        -2.7625  -12.0145    7.1869 H           1 NP6       0.0588
     43 H16        -4.2808  -11.3637    6.5400 H           1 NP6       0.0588
     44 H17        -4.4777  -13.1040    5.2327 H           1 NP6       0.2095
     45 H18        -8.0951  -11.9540    8.5369 H           1 NP6       0.2276
     46 H19        -7.3361   -8.4542    8.0227 H           1 NP6       0.0501
     47 H20        -7.3585   -6.8737    9.8359 H           1 NP6       0.0577
     48 H21        -8.1201   -7.5503   12.0404 H           1 NP6       0.0487
     49 H22        -8.9411   -9.8099   12.3970 H           1 NP6       0.0577
     50 H23        -8.9542  -11.3964   10.5848 H           1 NP6       0.0501
@<TRIPOS>BOND
     1     1     2   1
     2     2     3   1
     3     3     4   1
     4     4     5   2
     5     4     6  am
     6     6     7   1
     7     7     8   1
     8     7    16   1
     9     8     9   1
    10     8    10   1
    11    10    11   1
    12    10    12   1
    13    12    13   1
    14    12    15   1
    15    13    14   1
    16    15    16   1
    17    16    17   2
    18    17    18   1
    19    18    19   1
    20    19    20   2
    21    19    21  am
    22    21    22   1
    23    22    23  ar
    24    22    27  ar
    25    23    24  ar
    26    24    25  ar
    27    25    26  ar
    28    26    27  ar
    29     1    28   1
    30     1    29   1
    31     1    30   1
    32     2    31   1
    33     2    32   1
    34     3    33   1
    35     3    34   1
    36     6    35   1
    37     7    36   1
    38     8    37   1
    39     9    38   1
    40    10    39   1
    41    11    40   1
    42    12    41   1
    43    13    42   1
    44    13    43   1
    45    14    44   1
    46    21    45   1
    47    23    46   1
    48    24    47   1
    49    25    48   1
    50    26    49   1
    51    27    50   1
@<TRIPOS>SUBSTRUCTURE
     1  NP6      1

