@<TRIPOS>MOLECULE
2wca_ligand_077
    50    51
SMALL
GAST_HUCK
****
This file was generated by PARSER (from files_GN.cpp)

@<TRIPOS>ATOM
      1 C2        -10.4309  -17.8025    8.5076 C.3         1 NP6      -0.0632
      2 C1         -9.8829  -16.5348    9.2033 C.3         1 NP6      -0.0389
      3 C3         -9.2221  -15.5474    8.2018 C.3         1 NP6       0.0372
      4 C4         -9.1326  -14.1856    8.6975 C.2         1 NP6       0.1785
      5 O1        -10.1703  -13.5385    8.7801 O.2         1 NP6      -0.3969
      6 N1         -7.9542  -13.6538    9.0063 N.am        1 NP6      -0.2639
      7 C5         -7.6630  -12.3282    9.4923 C.3         1 NP6       0.1483
      8 C6         -8.5209  -11.9134   10.7264 C.3         1 NP6       0.1223
      9 O2         -8.3348  -12.8478   11.7864 O.3         1 NP6      -0.3842
     10 C7         -8.1843  -10.4751   11.2152 C.3         1 NP6       0.1187
     11 O3         -9.1709  -10.0605   12.1602 O.3         1 NP6      -0.3859
     12 C8         -8.1719   -9.5050    9.9918 C.3         1 NP6       0.1375
     13 C9         -7.7489   -8.0559   10.3440 C.3         1 NP6       0.0780
     14 O4         -6.4948   -7.9797   11.0179 O.3         1 NP6      -0.3919
     15 O5         -7.3064  -10.0215    8.9483 O.3         1 NP6      -0.2871
     16 C10        -7.7032  -11.2401    8.5161 C.2         1 NP6       0.1893
     17 N2         -8.2188  -11.3590    7.3454 N.2         1 NP6      -0.1541
     18 O6         -8.2252  -10.4014    6.4951 O.3         1 NP6      -0.1506
     19 C11        -8.9742  -10.3075    5.3620 C.2         1 NP6       0.3788
     20 O7         -8.7693   -9.2132    4.5924 O.2         1 NP6      -0.3643
     21 N3         -9.9550  -11.2031    5.1089 N.am        1 NP6      -0.2057
     22 C12       -10.9228  -11.2058    4.1374 C.ar        1 NP6       0.0683
     23 C13       -12.0817  -11.9524    4.4376 C.ar        1 NP6      -0.0414
     24 C14       -13.1607  -12.0129    3.5389 C.ar        1 NP6      -0.0756
     25 C15       -13.0821  -11.3522    2.3044 C.ar        1 NP6      -0.0773
     26 C16       -11.9253  -10.6228    1.9716 C.ar        1 NP6      -0.0756
     27 C17       -10.8496  -10.5547    2.8804 C.ar        1 NP6      -0.0414
     28 H1        -10.8322  -18.4930    9.2517 H           1 NP6       0.0231
     29 H2         -9.6391  -18.3091    7.9527 H           1 NP6       0.0231
     30 H3        -11.2330  -17.5371    7.8152 H           1 NP6       0.0231
     31 H4         -9.1430  -16.8363    9.9500 H           1 NP6       0.0287
     32 H5        -10.7098  -16.0469    9.7250 H           1 NP6       0.0287
     33 H6         -9.7971  -15.5335    7.2716 H           1 NP6       0.0502
     34 H7         -8.2235  -15.9216    7.9581 H           1 NP6       0.0502
     35 H8         -7.1865  -14.2414    8.9152 H           1 NP6       0.1888
     36 H9         -6.6237  -12.3798    9.8314 H           1 NP6       0.0821
     37 H10        -9.5778  -11.9247   10.4546 H           1 NP6       0.0672
     38 H11        -9.1392  -12.7630   12.3396 H           1 NP6       0.2103
     39 H12        -7.1968  -10.4824   11.6932 H           1 NP6       0.0653
     40 H13        -8.6786   -9.9061   12.9901 H           1 NP6       0.2100
     41 H14        -9.1925   -9.4376    9.5966 H           1 NP6       0.0708
     42 H15        -8.5119   -7.5894   10.9713 H           1 NP6       0.0588
     43 H16        -7.6775   -7.4749    9.4205 H           1 NP6       0.0588
     44 H17        -6.6519   -8.3091   11.9253 H           1 NP6       0.2095
     45 H18       -10.0650  -11.8825    5.7943 H           1 NP6       0.2276
     46 H19       -12.1631  -12.4365    5.3332 H           1 NP6       0.0501
     47 H20       -13.9985  -12.5471    3.7761 H           1 NP6       0.0577
     48 H21       -13.8637  -11.4003    1.6490 H           1 NP6       0.0487
     49 H22       -11.8675  -10.1554    1.0656 H           1 NP6       0.0577
     50 H23       -10.0115  -10.0323    2.6174 H           1 NP6       0.0501
@<TRIPOS>BOND
     1     1     2   1
     2     2     3   1
     3     3     4   1
     4     4     5   2
     5     4     6  am
     6     6     7   1
     7     7     8   1
     8     7    16   1
     9     8     9   1
    10     8    10   1
    11    10    11   1
    12    10    12   1
    13    12    13   1
    14    12    15   1
    15    13    14   1
    16    15    16   1
    17    16    17   2
    18    17    18   1
    19    18    19   1
    20    19    20   2
    21    19    21  am
    22    21    22   1
    23    22    23  ar
    24    22    27  ar
    25    23    24  ar
    26    24    25  ar
    27    25    26  ar
    28    26    27  ar
    29     1    28   1
    30     1    29   1
    31     1    30   1
    32     2    31   1
    33     2    32   1
    34     3    33   1
    35     3    34   1
    36     6    35   1
    37     7    36   1
    38     8    37   1
    39     9    38   1
    40    10    39   1
    41    11    40   1
    42    12    41   1
    43    13    42   1
    44    13    43   1
    45    14    44   1
    46    21    45   1
    47    23    46   1
    48    24    47   1
    49    25    48   1
    50    26    49   1
    51    27    50   1
@<TRIPOS>SUBSTRUCTURE
     1  NP6      1

