@<TRIPOS>MOLECULE
2wca_ligand_095
    50    51
SMALL
GAST_HUCK
****
This file was generated by PARSER (from files_GN.cpp)

@<TRIPOS>ATOM
      1 C2         -8.5004  -11.1742   11.7699 C.3         1 NP6      -0.0632
      2 C1         -8.0844   -9.7465   11.3430 C.3         1 NP6      -0.0389
      3 C3         -6.9666   -9.6995   10.2643 C.3         1 NP6       0.0372
      4 C4         -5.7494  -10.3882   10.6387 C.2         1 NP6       0.1785
      5 O1         -5.4084  -11.3736    9.9949 O.2         1 NP6      -0.3969
      6 N1         -4.9911   -9.9213   11.6290 N.am        1 NP6      -0.2639
      7 C5         -3.7786  -10.5121   12.1254 C.3         1 NP6       0.1483
      8 C6         -3.8713  -10.5306   13.6800 C.3         1 NP6       0.1223
      9 O2         -4.8701  -11.4718   14.0849 O.3         1 NP6      -0.3842
     10 C7         -2.5088  -10.8813   14.3310 C.3         1 NP6       0.1187
     11 O3         -2.6242  -10.8024   15.7490 O.3         1 NP6      -0.3859
     12 C8         -1.4288   -9.9155   13.7542 C.3         1 NP6       0.1375
     13 C9         -0.0098  -10.1887   14.3096 C.3         1 NP6       0.0780
     14 O4          0.1109   -9.7758   15.6706 O.3         1 NP6      -0.3919
     15 O5         -1.3927  -10.0494   12.3123 O.3         1 NP6      -0.2871
     16 C10        -2.5505   -9.8461   11.6556 C.2         1 NP6       0.1893
     17 N2         -2.3775   -9.4840   10.4403 N.2         1 NP6      -0.1541
     18 O6         -3.2813   -9.2937    9.5644 O.3         1 NP6      -0.1506
     19 C11        -3.2068   -9.3368    8.2078 C.2         1 NP6       0.3788
     20 O7         -4.3538   -9.0521    7.5541 O.2         1 NP6      -0.3643
     21 N3         -2.1695   -9.7587    7.4547 N.am        1 NP6      -0.2057
     22 C12        -0.9641  -10.1801    7.9122 C.ar        1 NP6       0.0683
     23 C13        -0.0645   -9.2777    8.5175 C.ar        1 NP6      -0.0414
     24 C14         1.1955   -9.7190    8.9560 C.ar        1 NP6      -0.0756
     25 C15         1.5643  -11.0724    8.7935 C.ar        1 NP6      -0.0773
     26 C16         0.6775  -11.9678    8.1676 C.ar        1 NP6      -0.0756
     27 C17        -0.5760  -11.5221    7.7193 C.ar        1 NP6      -0.0414
     28 H1         -9.3195  -11.1182   12.4885 H           1 NP6       0.0231
     29 H2         -7.6645  -11.6898   12.2466 H           1 NP6       0.0231
     30 H3         -8.8294  -11.7531   10.9058 H           1 NP6       0.0231
     31 H4         -7.7610   -9.1869   12.2248 H           1 NP6       0.0287
     32 H5         -8.9649   -9.2402   10.9392 H           1 NP6       0.0287
     33 H6         -6.7238   -8.6550   10.0523 H           1 NP6       0.0502
     34 H7         -7.3724  -10.1234    9.3398 H           1 NP6       0.0502
     35 H8         -5.3133   -9.1285   12.0887 H           1 NP6       0.1888
     36 H9         -3.6988  -11.5555   11.8029 H           1 NP6       0.0821
     37 H10        -4.1746   -9.5414   14.0385 H           1 NP6       0.0672
     38 H11        -5.0447  -11.2948   15.0329 H           1 NP6       0.2103
     39 H12        -2.2369  -11.9096   14.0758 H           1 NP6       0.0653
     40 H13        -2.7879   -9.8582   15.9444 H           1 NP6       0.2100
     41 H14        -1.6880   -8.8798   14.0048 H           1 NP6       0.0708
     42 H15         0.7249   -9.6247   13.7301 H           1 NP6       0.0588
     43 H16         0.2317  -11.2504   14.2296 H           1 NP6       0.0588
     44 H17        -0.4863  -10.3698   16.1740 H           1 NP6       0.2095
     45 H18        -2.3504   -9.9076    6.5131 H           1 NP6       0.2276
     46 H19        -0.3192   -8.2929    8.6367 H           1 NP6       0.0501
     47 H20         1.8547   -9.0602    9.3728 H           1 NP6       0.0577
     48 H21         2.4816  -11.3922    9.1038 H           1 NP6       0.0487
     49 H22         0.9566  -12.9436    8.0233 H           1 NP6       0.0577
     50 H23        -1.2201  -12.1809    7.2676 H           1 NP6       0.0501
@<TRIPOS>BOND
     1     1     2   1
     2     2     3   1
     3     3     4   1
     4     4     5   2
     5     4     6  am
     6     6     7   1
     7     7     8   1
     8     7    16   1
     9     8     9   1
    10     8    10   1
    11    10    11   1
    12    10    12   1
    13    12    13   1
    14    12    15   1
    15    13    14   1
    16    15    16   1
    17    16    17   2
    18    17    18   1
    19    18    19   1
    20    19    20   2
    21    19    21  am
    22    21    22   1
    23    22    23  ar
    24    22    27  ar
    25    23    24  ar
    26    24    25  ar
    27    25    26  ar
    28    26    27  ar
    29     1    28   1
    30     1    29   1
    31     1    30   1
    32     2    31   1
    33     2    32   1
    34     3    33   1
    35     3    34   1
    36     6    35   1
    37     7    36   1
    38     8    37   1
    39     9    38   1
    40    10    39   1
    41    11    40   1
    42    12    41   1
    43    13    42   1
    44    13    43   1
    45    14    44   1
    46    21    45   1
    47    23    46   1
    48    24    47   1
    49    25    48   1
    50    26    49   1
    51    27    50   1
@<TRIPOS>SUBSTRUCTURE
     1  NP6      1

