@<TRIPOS>MOLECULE
2wca_ligand_032
    50    51
SMALL
GAST_HUCK
****
This file was generated by PARSER (from files_GN.cpp)

@<TRIPOS>ATOM
      1 C2         -5.1670  -17.2126    8.2525 C.3         1 NP6      -0.0632
      2 C1         -6.6657  -17.4135    8.5702 C.3         1 NP6      -0.0389
      3 C3         -7.4086  -16.0775    8.8443 C.3         1 NP6       0.0372
      4 C4         -8.7155  -16.2708    9.4468 C.2         1 NP6       0.1785
      5 O1         -8.8737  -15.9854   10.6308 O.2         1 NP6      -0.3969
      6 N1         -9.7105  -16.7685    8.7179 N.am        1 NP6      -0.2639
      7 C5        -11.0626  -17.0625    9.1401 C.3         1 NP6       0.1483
      8 C6        -11.9313  -15.7747    9.2952 C.3         1 NP6       0.1223
      9 O2        -12.0024  -15.0678    8.0560 O.3         1 NP6      -0.3842
     10 C7        -13.3676  -16.1320    9.7649 C.3         1 NP6       0.1187
     11 O3        -14.1110  -14.9412   10.0142 O.3         1 NP6      -0.3859
     12 C8        -13.2871  -17.0355   11.0431 C.3         1 NP6       0.1375
     13 C9        -14.6736  -17.5420   11.5289 C.3         1 NP6       0.0780
     14 O4        -15.6032  -17.7451   10.4671 O.3         1 NP6      -0.3919
     15 O5        -12.4250  -18.1763   10.8159 O.3         1 NP6      -0.2871
     16 C10       -11.1979  -17.8858   10.3433 C.2         1 NP6       0.1893
     17 N2        -10.1656  -18.3608   10.9347 N.2         1 NP6      -0.1541
     18 O6        -10.1209  -18.9971   12.0358 O.3         1 NP6      -0.1506
     19 C11        -8.9660  -19.5365   12.5108 C.2         1 NP6       0.3788
     20 O7         -8.9970  -20.1038   13.7399 O.2         1 NP6      -0.3643
     21 N3         -7.8546  -19.5539   11.7342 N.am        1 NP6      -0.2057
     22 C12        -6.6519  -20.1098   12.0289 C.ar        1 NP6       0.0683
     23 C13        -6.0558  -20.9268   11.0443 C.ar        1 NP6      -0.0414
     24 C14        -4.8112  -21.5351   11.2791 C.ar        1 NP6      -0.0756
     25 C15        -4.1320  -21.3040   12.4880 C.ar        1 NP6      -0.0773
     26 C16        -4.6968  -20.4561   13.4602 C.ar        1 NP6      -0.0756
     27 C17        -5.9516  -19.8598   13.2326 C.ar        1 NP6      -0.0414
     28 H1         -4.7033  -18.1752    8.0215 H           1 NP6       0.0231
     29 H2         -4.6504  -16.7772    9.1119 H           1 NP6       0.0231
     30 H3         -5.0403  -16.5519    7.3909 H           1 NP6       0.0231
     31 H4         -6.7449  -18.0644    9.4435 H           1 NP6       0.0287
     32 H5         -7.1273  -17.9234    7.7214 H           1 NP6       0.0287
     33 H6         -7.5408  -15.5406    7.9018 H           1 NP6       0.0502
     34 H7         -6.7856  -15.4573    9.4953 H           1 NP6       0.0502
     35 H8         -9.4975  -16.9679    7.7868 H           1 NP6       0.1888
     36 H9        -11.4975  -17.6462    8.3238 H           1 NP6       0.0821
     37 H10       -11.4858  -15.1051   10.0345 H           1 NP6       0.0672
     38 H11       -11.0960  -14.7347    7.8875 H           1 NP6       0.2103
     39 H12       -13.8624  -16.6815    8.9610 H           1 NP6       0.0653
     40 H13       -15.0337  -15.2372   10.1669 H           1 NP6       0.2100
     41 H14       -12.8574  -16.4466   11.8659 H           1 NP6       0.0708
     42 H15       -15.1093  -16.8149   12.2162 H           1 NP6       0.0588
     43 H16       -14.5500  -18.4842   12.0720 H           1 NP6       0.0588
     44 H17       -16.4436  -17.9950   10.9078 H           1 NP6       0.2095
     45 H18        -7.9726  -19.2563   10.8181 H           1 NP6       0.2276
     46 H19        -6.5409  -21.1021   10.1603 H           1 NP6       0.0501
     47 H20        -4.3998  -22.1437   10.5675 H           1 NP6       0.0577
     48 H21        -3.2270  -21.7469   12.6574 H           1 NP6       0.0487
     49 H22        -4.1882  -20.2682   14.3272 H           1 NP6       0.0577
     50 H23        -6.3383  -19.2248   13.9353 H           1 NP6       0.0501
@<TRIPOS>BOND
     1     1     2   1
     2     2     3   1
     3     3     4   1
     4     4     5   2
     5     4     6  am
     6     6     7   1
     7     7     8   1
     8     7    16   1
     9     8     9   1
    10     8    10   1
    11    10    11   1
    12    10    12   1
    13    12    13   1
    14    12    15   1
    15    13    14   1
    16    15    16   1
    17    16    17   2
    18    17    18   1
    19    18    19   1
    20    19    20   2
    21    19    21  am
    22    21    22   1
    23    22    23  ar
    24    22    27  ar
    25    23    24  ar
    26    24    25  ar
    27    25    26  ar
    28    26    27  ar
    29     1    28   1
    30     1    29   1
    31     1    30   1
    32     2    31   1
    33     2    32   1
    34     3    33   1
    35     3    34   1
    36     6    35   1
    37     7    36   1
    38     8    37   1
    39     9    38   1
    40    10    39   1
    41    11    40   1
    42    12    41   1
    43    13    42   1
    44    13    43   1
    45    14    44   1
    46    21    45   1
    47    23    46   1
    48    24    47   1
    49    25    48   1
    50    26    49   1
    51    27    50   1
@<TRIPOS>SUBSTRUCTURE
     1  NP6      1

