@<TRIPOS>MOLECULE
2wca_ligand_081
    50    51
SMALL
GAST_HUCK
****
This file was generated by PARSER (from files_GN.cpp)

@<TRIPOS>ATOM
      1 C2         -6.4327  -25.4152   12.4634 C.3         1 NP6      -0.0632
      2 C1         -7.9587  -25.2521   12.6753 C.3         1 NP6      -0.0389
      3 C3         -8.3639  -23.8802   13.2783 C.3         1 NP6       0.0372
      4 C4         -7.9585  -22.7531   12.4484 C.2         1 NP6       0.1785
      5 O1         -6.8615  -22.2454   12.6688 O.2         1 NP6      -0.3969
      6 N1         -8.7406  -22.3920   11.4359 N.am        1 NP6      -0.2639
      7 C5         -8.5841  -21.3594   10.4358 C.3         1 NP6       0.1483
      8 C6         -7.1319  -20.9328   10.0390 C.3         1 NP6       0.1223
      9 O2         -6.4005  -22.0823    9.6093 O.3         1 NP6      -0.3842
     10 C7         -7.1377  -19.8285    8.9435 C.3         1 NP6       0.1187
     11 O3         -5.7885  -19.3982    8.7296 O.3         1 NP6      -0.3859
     12 C8         -8.0562  -18.6681    9.4441 C.3         1 NP6       0.1375
     13 C9         -8.3032  -17.5122    8.4381 C.3         1 NP6       0.0780
     14 O4         -7.1015  -17.0093    7.8403 O.3         1 NP6      -0.3919
     15 O5         -9.3782  -19.1818    9.7578 O.3         1 NP6      -0.2871
     16 C10        -9.4158  -20.1790   10.6569 C.2         1 NP6       0.1893
     17 N2        -10.3750  -20.1909   11.5041 N.2         1 NP6      -0.1541
     18 O6        -11.2804  -19.2978   11.5167 O.3         1 NP6      -0.1506
     19 C11       -12.2544  -19.1886   12.4501 C.2         1 NP6       0.3788
     20 O7        -12.2732  -20.0437   13.4988 O.2         1 NP6      -0.3643
     21 N3        -13.2723  -18.3063   12.3622 N.am        1 NP6      -0.2057
     22 C12       -13.5656  -17.3824   11.4014 C.ar        1 NP6       0.0683
     23 C13       -14.9081  -16.9347   11.3602 C.ar        1 NP6      -0.0414
     24 C14       -15.3329  -15.9963   10.4018 C.ar        1 NP6      -0.0756
     25 C15       -14.4162  -15.4830    9.4725 C.ar        1 NP6      -0.0773
     26 C16       -13.0705  -15.8901    9.5172 C.ar        1 NP6      -0.0756
     27 C17       -12.6466  -16.8280   10.4781 C.ar        1 NP6      -0.0414
     28 H1         -6.2166  -26.4264   12.0970 H           1 NP6       0.0231
     29 H2         -5.8947  -25.2625   13.4024 H           1 NP6       0.0231
     30 H3         -6.0674  -24.6942   11.7240 H           1 NP6       0.0231
     31 H4         -8.3000  -26.0475   13.3458 H           1 NP6       0.0287
     32 H5         -8.4639  -25.3845   11.7150 H           1 NP6       0.0287
     33 H6         -7.9183  -23.8054   14.2683 H           1 NP6       0.0502
     34 H7         -9.4476  -23.8518   13.4123 H           1 NP6       0.0502
     35 H8         -9.6109  -22.8247   11.4121 H           1 NP6       0.1888
     36 H9         -9.0119  -21.8184    9.5335 H           1 NP6       0.0821
     37 H10        -6.6189  -20.5065   10.9077 H           1 NP6       0.0672
     38 H11        -6.6230  -22.1968    8.6542 H           1 NP6       0.2103
     39 H12        -7.5354  -20.2283    8.0043 H           1 NP6       0.0653
     40 H13        -5.8056  -18.8506    7.9203 H           1 NP6       0.2100
     41 H14        -7.6116  -18.2241   10.3501 H           1 NP6       0.0708
     42 H15        -8.7698  -16.6653    8.9723 H           1 NP6       0.0588
     43 H16        -9.0107  -17.8285    7.6429 H           1 NP6       0.0588
     44 H17        -7.4176  -16.6289    6.9892 H           1 NP6       0.2095
     45 H18       -13.9302  -18.3862   13.0638 H           1 NP6       0.2276
     46 H19       -15.5937  -17.3025   12.0215 H           1 NP6       0.0501
     47 H20       -16.3132  -15.6905   10.3854 H           1 NP6       0.0577
     48 H21       -14.7267  -14.8108    8.7713 H           1 NP6       0.0487
     49 H22       -12.4030  -15.5059    8.8486 H           1 NP6       0.0577
     50 H23       -11.6583  -17.0780   10.5022 H           1 NP6       0.0501
@<TRIPOS>BOND
     1     1     2   1
     2     2     3   1
     3     3     4   1
     4     4     5   2
     5     4     6  am
     6     6     7   1
     7     7     8   1
     8     7    16   1
     9     8     9   1
    10     8    10   1
    11    10    11   1
    12    10    12   1
    13    12    13   1
    14    12    15   1
    15    13    14   1
    16    15    16   1
    17    16    17   2
    18    17    18   1
    19    18    19   1
    20    19    20   2
    21    19    21  am
    22    21    22   1
    23    22    23  ar
    24    22    27  ar
    25    23    24  ar
    26    24    25  ar
    27    25    26  ar
    28    26    27  ar
    29     1    28   1
    30     1    29   1
    31     1    30   1
    32     2    31   1
    33     2    32   1
    34     3    33   1
    35     3    34   1
    36     6    35   1
    37     7    36   1
    38     8    37   1
    39     9    38   1
    40    10    39   1
    41    11    40   1
    42    12    41   1
    43    13    42   1
    44    13    43   1
    45    14    44   1
    46    21    45   1
    47    23    46   1
    48    24    47   1
    49    25    48   1
    50    26    49   1
    51    27    50   1
@<TRIPOS>SUBSTRUCTURE
     1  NP6      1

