@<TRIPOS>MOLECULE
2wca_ligand_076
    50    51
SMALL
GAST_HUCK
****
This file was generated by PARSER (from files_GN.cpp)

@<TRIPOS>ATOM
      1 C2         -4.2866  -17.9455    6.4517 C.3         1 NP6      -0.0632
      2 C1         -4.9192  -17.2775    5.2056 C.3         1 NP6      -0.0389
      3 C3         -4.9315  -15.7321    5.2309 C.3         1 NP6       0.0372
      4 C4         -5.2270  -15.1677    6.5284 C.2         1 NP6       0.1785
      5 O1         -4.2822  -14.8051    7.2329 O.2         1 NP6      -0.3969
      6 N1         -6.4767  -15.0672    6.9768 N.am        1 NP6      -0.2639
      7 C5         -6.8531  -14.5890    8.2779 C.3         1 NP6       0.1483
      8 C6         -8.3988  -14.5955    8.4451 C.3         1 NP6       0.1223
      9 O2         -8.8813  -15.9399    8.3657 O.3         1 NP6      -0.3842
     10 C7         -8.8247  -13.9989    9.8176 C.3         1 NP6       0.1187
     11 O3        -10.2393  -13.8336    9.8267 O.3         1 NP6      -0.3859
     12 C8         -8.0849  -12.6418   10.0809 C.3         1 NP6       0.1375
     13 C9         -8.3333  -12.0921   11.5169 C.3         1 NP6       0.0780
     14 O4         -9.2327  -10.9707   11.4911 O.3         1 NP6      -0.3919
     15 O5         -6.6537  -12.8114    9.9013 O.3         1 NP6      -0.2871
     16 C10        -6.3525  -13.2610    8.6572 C.2         1 NP6       0.1893
     17 N2         -5.6944  -12.5300    7.8369 N.2         1 NP6      -0.1541
     18 O6         -5.1267  -11.4242    8.1386 O.3         1 NP6      -0.1506
     19 C11        -4.6891  -10.5355    7.2083 C.2         1 NP6       0.3788
     20 O7         -5.0003  -10.7058    5.9022 O.2         1 NP6      -0.3643
     21 N3         -3.8546   -9.5151    7.5125 N.am        1 NP6      -0.2057
     22 C12        -3.3090   -9.3085    8.7445 C.ar        1 NP6       0.0683
     23 C13        -4.0782   -8.9156    9.8622 C.ar        1 NP6      -0.0414
     24 C14        -3.4546   -8.7165   11.1051 C.ar        1 NP6      -0.0756
     25 C15        -2.0713   -8.9139   11.2526 C.ar        1 NP6      -0.0773
     26 C16        -1.2986   -9.2793   10.1364 C.ar        1 NP6      -0.0756
     27 C17        -1.9129   -9.4721    8.8877 C.ar        1 NP6      -0.0414
     28 H1         -4.1753  -19.0161    6.2881 H           1 NP6       0.0231
     29 H2         -4.9433  -17.8030    7.3261 H           1 NP6       0.0231
     30 H3         -3.3030  -17.5121    6.6758 H           1 NP6       0.0231
     31 H4         -5.9419  -17.6531    5.0751 H           1 NP6       0.0287
     32 H5         -4.3432  -17.6055    4.3378 H           1 NP6       0.0287
     33 H6         -5.6611  -15.3919    4.4991 H           1 NP6       0.0502
     34 H7         -3.9543  -15.3667    4.8872 H           1 NP6       0.0502
     35 H8         -7.1825  -15.4267    6.4032 H           1 NP6       0.1888
     36 H9         -6.4477  -15.3075    9.0133 H           1 NP6       0.0821
     37 H10        -8.8557  -14.0158    7.6361 H           1 NP6       0.0672
     38 H11        -9.8114  -15.8622    8.0617 H           1 NP6       0.2103
     39 H12        -8.5546  -14.7124   10.5941 H           1 NP6       0.0653
     40 H13       -10.4650  -13.7535   10.7766 H           1 NP6       0.2100
     41 H14        -8.4353  -11.8875    9.3748 H           1 NP6       0.0708
     42 H15        -7.4011  -11.7395   11.9477 H           1 NP6       0.0588
     43 H16        -8.7470  -12.8499   12.1761 H           1 NP6       0.0588
     44 H17        -8.7408  -10.2731   10.9974 H           1 NP6       0.2095
     45 H18        -3.4861   -9.0259    6.7713 H           1 NP6       0.2276
     46 H19        -5.0812   -8.7623    9.7704 H           1 NP6       0.0501
     47 H20        -4.0195   -8.4221   11.9142 H           1 NP6       0.0577
     48 H21        -1.6321   -8.7749   12.1568 H           1 NP6       0.0487
     49 H22        -0.2907   -9.4199   10.2349 H           1 NP6       0.0577
     50 H23        -1.3375   -9.7534    8.0802 H           1 NP6       0.0501
@<TRIPOS>BOND
     1     1     2   1
     2     2     3   1
     3     3     4   1
     4     4     5   2
     5     4     6  am
     6     6     7   1
     7     7     8   1
     8     7    16   1
     9     8     9   1
    10     8    10   1
    11    10    11   1
    12    10    12   1
    13    12    13   1
    14    12    15   1
    15    13    14   1
    16    15    16   1
    17    16    17   2
    18    17    18   1
    19    18    19   1
    20    19    20   2
    21    19    21  am
    22    21    22   1
    23    22    23  ar
    24    22    27  ar
    25    23    24  ar
    26    24    25  ar
    27    25    26  ar
    28    26    27  ar
    29     1    28   1
    30     1    29   1
    31     1    30   1
    32     2    31   1
    33     2    32   1
    34     3    33   1
    35     3    34   1
    36     6    35   1
    37     7    36   1
    38     8    37   1
    39     9    38   1
    40    10    39   1
    41    11    40   1
    42    12    41   1
    43    13    42   1
    44    13    43   1
    45    14    44   1
    46    21    45   1
    47    23    46   1
    48    24    47   1
    49    25    48   1
    50    26    49   1
    51    27    50   1
@<TRIPOS>SUBSTRUCTURE
     1  NP6      1

