@<TRIPOS>MOLECULE
2wca_ligand_001
    50    51
SMALL
GAST_HUCK
****
This file was generated by PARSER (from files_GN.cpp)

@<TRIPOS>ATOM
      1 C2        -11.0732  -14.1148    5.8592 C.3         1 NP6      -0.0632
      2 C1        -11.1641  -12.6559    5.3576 C.3         1 NP6      -0.0389
      3 C3         -9.7942  -12.0135    4.9915 C.3         1 NP6       0.0372
      4 C4         -9.1259  -11.4191    6.1363 C.2         1 NP6       0.1785
      5 O1         -9.2423  -10.2072    6.3050 O.2         1 NP6      -0.3969
      6 N1         -8.4031  -12.1595    6.9679 N.am        1 NP6      -0.2639
      7 C5         -7.7557  -11.7351    8.1881 C.3         1 NP6       0.1483
      8 C6         -8.7897  -11.5176    9.3362 C.3         1 NP6       0.1223
      9 O2         -9.2259  -12.7896    9.8312 O.3         1 NP6      -0.3842
     10 C7         -8.1586  -10.6755   10.4745 C.3         1 NP6       0.1187
     11 O3         -9.0853  -10.4738   11.5431 O.3         1 NP6      -0.3859
     12 C8         -7.7168   -9.3109    9.8526 C.3         1 NP6       0.1375
     13 C9         -6.9120   -8.4333   10.8435 C.3         1 NP6       0.0780
     14 O4         -5.6438   -9.0063   11.1496 O.3         1 NP6      -0.3919
     15 O5         -6.9766   -9.4165    8.6179 O.3         1 NP6      -0.2871
     16 C10        -6.8593  -10.5965    7.9805 C.2         1 NP6       0.1893
     17 N2         -5.8113  -10.7875    7.2704 N.2         1 NP6      -0.1541
     18 O6         -4.9622   -9.9061    6.9264 O.3         1 NP6      -0.1506
     19 C11        -3.6655  -10.1481    6.5851 C.2         1 NP6       0.3788
     20 O7         -2.9840   -9.1264    6.0246 O.2         1 NP6      -0.3643
     21 N3         -2.9655  -11.2876    6.8183 N.am        1 NP6      -0.2057
     22 C12        -3.3686  -12.2632    7.6703 C.ar        1 NP6       0.0683
     23 C13        -3.0400  -12.1692    9.0365 C.ar        1 NP6      -0.0414
     24 C14        -3.5147  -13.1317    9.9485 C.ar        1 NP6      -0.0756
     25 C15        -4.3194  -14.1913    9.4931 C.ar        1 NP6      -0.0773
     26 C16        -4.6330  -14.3014    8.1257 C.ar        1 NP6      -0.0756
     27 C17        -4.1572  -13.3396    7.2111 C.ar        1 NP6      -0.0414
     28 H1        -12.0709  -14.4766    6.1204 H           1 NP6       0.0231
     29 H2        -10.4425  -14.1743    6.7476 H           1 NP6       0.0231
     30 H3        -10.6618  -14.7578    5.0801 H           1 NP6       0.0231
     31 H4        -11.6605  -12.0476    6.1212 H           1 NP6       0.0287
     32 H5        -11.8085  -12.6417    4.4700 H           1 NP6       0.0287
     33 H6         -9.9824  -11.2411    4.2414 H           1 NP6       0.0502
     34 H7         -9.1498  -12.7562    4.5187 H           1 NP6       0.0502
     35 H8         -8.3331  -13.1065    6.7553 H           1 NP6       0.1888
     36 H9         -7.1271  -12.5772    8.5031 H           1 NP6       0.0821
     37 H10        -9.6755  -10.9935    8.9592 H           1 NP6       0.0672
     38 H11        -9.8103  -12.5900   10.5919 H           1 NP6       0.2103
     39 H12        -7.2920  -11.2153   10.8699 H           1 NP6       0.0653
     40 H13        -8.5326  -10.3748   12.3523 H           1 NP6       0.2100
     41 H14        -8.6255   -8.7570    9.6098 H           1 NP6       0.0708
     42 H15        -7.4780   -8.3050   11.7717 H           1 NP6       0.0588
     43 H16        -6.7449   -7.4415   10.4113 H           1 NP6       0.0588
     44 H17        -5.5708   -8.9231   12.1250 H           1 NP6       0.2095
     45 H18        -2.0327  -11.2856    6.5609 H           1 NP6       0.2276
     46 H19        -2.4703  -11.3906    9.3821 H           1 NP6       0.0501
     47 H20        -3.2888  -13.0515   10.9436 H           1 NP6       0.0577
     48 H21        -4.6737  -14.8866   10.1569 H           1 NP6       0.0487
     49 H22        -5.2246  -15.0689    7.7960 H           1 NP6       0.0577
     50 H23        -4.4114  -13.4108    6.2257 H           1 NP6       0.0501
@<TRIPOS>BOND
     1     1     2   1
     2     2     3   1
     3     3     4   1
     4     4     5   2
     5     4     6  am
     6     6     7   1
     7     7     8   1
     8     7    16   1
     9     8     9   1
    10     8    10   1
    11    10    11   1
    12    10    12   1
    13    12    13   1
    14    12    15   1
    15    13    14   1
    16    15    16   1
    17    16    17   2
    18    17    18   1
    19    18    19   1
    20    19    20   2
    21    19    21  am
    22    21    22   1
    23    22    23  ar
    24    22    27  ar
    25    23    24  ar
    26    24    25  ar
    27    25    26  ar
    28    26    27  ar
    29     1    28   1
    30     1    29   1
    31     1    30   1
    32     2    31   1
    33     2    32   1
    34     3    33   1
    35     3    34   1
    36     6    35   1
    37     7    36   1
    38     8    37   1
    39     9    38   1
    40    10    39   1
    41    11    40   1
    42    12    41   1
    43    13    42   1
    44    13    43   1
    45    14    44   1
    46    21    45   1
    47    23    46   1
    48    24    47   1
    49    25    48   1
    50    26    49   1
    51    27    50   1
@<TRIPOS>SUBSTRUCTURE
     1  NP6      1

