@<TRIPOS>MOLECULE
2wca_ligand_071
    50    51
SMALL
GAST_HUCK
****
This file was generated by PARSER (from files_GN.cpp)

@<TRIPOS>ATOM
      1 C2         -2.9397  -12.1245   14.2651 C.3         1 NP6      -0.0632
      2 C1         -3.6128  -12.0674   12.8709 C.3         1 NP6      -0.0389
      3 C3         -4.8067  -11.0722   12.8204 C.3         1 NP6       0.0372
      4 C4         -5.6305  -11.0980   11.6245 C.2         1 NP6       0.1785
      5 O1         -5.5184  -12.0222   10.8265 O.2         1 NP6      -0.3969
      6 N1         -6.5348  -10.1370   11.4521 N.am        1 NP6      -0.2639
      7 C5         -7.5369  -10.0229   10.4174 C.3         1 NP6       0.1483
      8 C6         -8.6389  -11.1215   10.5680 C.3         1 NP6       0.1223
      9 O2         -9.3686  -10.8829   11.7724 O.3         1 NP6      -0.3842
     10 C7         -9.6319  -11.1551    9.3673 C.3         1 NP6       0.1187
     11 O3        -10.3887  -12.3673    9.3821 O.3         1 NP6      -0.3859
     12 C8         -8.8637  -11.0355    8.0192 C.3         1 NP6       0.1375
     13 C9         -9.8302  -10.8991    6.8181 C.3         1 NP6       0.0780
     14 O4         -9.1309  -10.8872    5.5798 O.3         1 NP6      -0.3919
     15 O5         -7.9859   -9.8828    8.0571 O.3         1 NP6      -0.2871
     16 C10        -7.0680   -9.9808    9.0367 C.2         1 NP6       0.1893
     17 N2         -5.8418  -10.1727    8.7233 N.2         1 NP6      -0.1541
     18 O6         -5.4198  -10.1695    7.5242 O.3         1 NP6      -0.1506
     19 C11        -4.2434  -10.6936    7.1084 C.2         1 NP6       0.3788
     20 O7         -3.9733  -10.5422    5.7944 O.2         1 NP6      -0.3643
     21 N3         -3.4140  -11.3513    7.9566 N.am        1 NP6      -0.2057
     22 C12        -2.3146  -12.0892    7.6522 C.ar        1 NP6       0.0683
     23 C13        -2.1443  -12.7997    6.4381 C.ar        1 NP6      -0.0414
     24 C14        -1.0065  -13.6072    6.2298 C.ar        1 NP6      -0.0756
     25 C15        -0.0256  -13.7110    7.2333 C.ar        1 NP6      -0.0773
     26 C16        -0.1923  -13.0247    8.4490 C.ar        1 NP6      -0.0756
     27 C17        -1.3282  -12.2193    8.6550 C.ar        1 NP6      -0.0414
     28 H1         -2.0585  -12.7694   14.2252 H           1 NP6       0.0231
     29 H2         -3.6387  -12.5321   15.0003 H           1 NP6       0.0231
     30 H3         -2.6284  -11.1249   14.5855 H           1 NP6       0.0231
     31 H4         -3.9548  -13.0777   12.6222 H           1 NP6       0.0287
     32 H5         -2.8626  -11.7693   12.1305 H           1 NP6       0.0287
     33 H6         -4.3998  -10.0637   12.9498 H           1 NP6       0.0502
     34 H7         -5.4649  -11.2714   13.6716 H           1 NP6       0.0502
     35 H8         -6.5489   -9.4412   12.1332 H           1 NP6       0.1888
     36 H9         -8.0262   -9.0596   10.5912 H           1 NP6       0.0821
     37 H10        -8.1692  -12.1044   10.6441 H           1 NP6       0.0672
     38 H11        -8.6974  -10.8760   12.4903 H           1 NP6       0.2103
     39 H12       -10.3238  -10.3107    9.4506 H           1 NP6       0.0653
     40 H13       -10.8205  -12.3974   10.2620 H           1 NP6       0.2100
     41 H14        -8.2722  -11.9477    7.8587 H           1 NP6       0.0708
     42 H15       -10.4149   -9.9816    6.9063 H           1 NP6       0.0588
     43 H16       -10.5269  -11.7417    6.7997 H           1 NP6       0.0588
     44 H17        -8.5242  -10.1149    5.6195 H           1 NP6       0.2095
     45 H18        -3.6371  -11.2896    8.9021 H           1 NP6       0.2276
     46 H19        -2.8655  -12.7874    5.7136 H           1 NP6       0.0501
     47 H20        -0.8950  -14.1310    5.3546 H           1 NP6       0.0577
     48 H21         0.7964  -14.3056    7.0896 H           1 NP6       0.0487
     49 H22         0.5080  -13.1131    9.1870 H           1 NP6       0.0577
     50 H23        -1.4420  -11.7370    9.5497 H           1 NP6       0.0501
@<TRIPOS>BOND
     1     1     2   1
     2     2     3   1
     3     3     4   1
     4     4     5   2
     5     4     6  am
     6     6     7   1
     7     7     8   1
     8     7    16   1
     9     8     9   1
    10     8    10   1
    11    10    11   1
    12    10    12   1
    13    12    13   1
    14    12    15   1
    15    13    14   1
    16    15    16   1
    17    16    17   2
    18    17    18   1
    19    18    19   1
    20    19    20   2
    21    19    21  am
    22    21    22   1
    23    22    23  ar
    24    22    27  ar
    25    23    24  ar
    26    24    25  ar
    27    25    26  ar
    28    26    27  ar
    29     1    28   1
    30     1    29   1
    31     1    30   1
    32     2    31   1
    33     2    32   1
    34     3    33   1
    35     3    34   1
    36     6    35   1
    37     7    36   1
    38     8    37   1
    39     9    38   1
    40    10    39   1
    41    11    40   1
    42    12    41   1
    43    13    42   1
    44    13    43   1
    45    14    44   1
    46    21    45   1
    47    23    46   1
    48    24    47   1
    49    25    48   1
    50    26    49   1
    51    27    50   1
@<TRIPOS>SUBSTRUCTURE
     1  NP6      1

