@<TRIPOS>MOLECULE
2wca_ligand_061
    50    51
SMALL
GAST_HUCK
****
This file was generated by PARSER (from files_GN.cpp)

@<TRIPOS>ATOM
      1 C2        -10.4607  -14.3997    5.0640 C.3         1 NP6      -0.0632
      2 C1        -11.3800  -13.1966    5.3820 C.3         1 NP6      -0.0389
      3 C3        -10.7309  -11.7955    5.1886 C.3         1 NP6       0.0372
      4 C4         -9.8309  -11.3061    6.2230 C.2         1 NP6       0.1785
      5 O1         -9.4292  -10.1570    6.1050 O.2         1 NP6      -0.3969
      6 N1         -9.4161  -12.0695    7.2239 N.am        1 NP6      -0.2639
      7 C5         -8.5302  -11.7219    8.3003 C.3         1 NP6       0.1483
      8 C6         -9.3315  -11.1356    9.4943 C.3         1 NP6       0.1223
      9 O2        -10.3000  -12.0767    9.9586 O.3         1 NP6      -0.3842
     10 C7         -8.3472  -10.7546   10.6254 C.3         1 NP6       0.1187
     11 O3         -9.0620  -10.2633   11.7570 O.3         1 NP6      -0.3859
     12 C8         -7.3338   -9.6983   10.0807 C.3         1 NP6       0.1375
     13 C9         -6.0335   -9.6328   10.9173 C.3         1 NP6       0.0780
     14 O4         -5.3747   -8.3838   10.7303 O.3         1 NP6      -0.3919
     15 O5         -6.9657   -9.8446    8.6861 O.3         1 NP6      -0.2871
     16 C10        -7.3668  -10.9063    7.9501 C.2         1 NP6       0.1893
     17 N2         -6.7498  -11.1477    6.8476 N.2         1 NP6      -0.1541
     18 O6         -5.6594  -10.6380    6.4018 O.3         1 NP6      -0.1506
     19 C11        -4.5057  -10.3345    7.0604 C.2         1 NP6       0.3788
     20 O7         -3.5685   -9.6669    6.3533 O.2         1 NP6      -0.3643
     21 N3         -4.2646  -10.8291    8.2993 N.am        1 NP6      -0.2057
     22 C12        -3.1438  -10.7008    9.0667 C.ar        1 NP6       0.0683
     23 C13        -3.0705  -11.5058   10.2245 C.ar        1 NP6      -0.0414
     24 C14        -1.9811  -11.4007   11.1089 C.ar        1 NP6      -0.0756
     25 C15        -0.9588  -10.4680   10.8558 C.ar        1 NP6      -0.0773
     26 C16        -1.0210   -9.6558    9.7074 C.ar        1 NP6      -0.0756
     27 C17        -2.1050   -9.7728    8.8171 C.ar        1 NP6      -0.0414
     28 H1        -11.0212  -15.3259    5.2048 H           1 NP6       0.0231
     29 H2         -9.5965  -14.4261    5.7273 H           1 NP6       0.0231
     30 H3        -10.1126  -14.3497    4.0303 H           1 NP6       0.0231
     31 H4        -11.7547  -13.2956    6.4038 H           1 NP6       0.0287
     32 H5        -12.2464  -13.2612    4.7175 H           1 NP6       0.0287
     33 H6        -11.5504  -11.0742    5.1163 H           1 NP6       0.0502
     34 H7        -10.2001  -11.7799    4.2302 H           1 NP6       0.0502
     35 H8         -9.7510  -12.9755    7.2415 H           1 NP6       0.1888
     36 H9         -8.1119  -12.6724    8.6360 H           1 NP6       0.0821
     37 H10        -9.8813  -10.2427    9.1776 H           1 NP6       0.0672
     38 H11        -9.7980  -12.7504   10.4657 H           1 NP6       0.2103
     39 H12        -7.8165  -11.6566   10.9425 H           1 NP6       0.0653
     40 H13        -8.3964  -10.1690   12.4721 H           1 NP6       0.2100
     41 H14        -7.8192   -8.7196   10.1410 H           1 NP6       0.0708
     42 H15        -5.3561  -10.4331   10.6115 H           1 NP6       0.0588
     43 H16        -6.2665   -9.7450   11.9767 H           1 NP6       0.0588
     44 H17        -4.6066   -8.3979   11.3401 H           1 NP6       0.2095
     45 H18        -4.9361  -11.4377    8.6449 H           1 NP6       0.2276
     46 H19        -3.8038  -12.1906   10.4242 H           1 NP6       0.0501
     47 H20        -1.9342  -11.9975   11.9378 H           1 NP6       0.0577
     48 H21        -0.1694  -10.3846   11.5022 H           1 NP6       0.0487
     49 H22        -0.2799   -8.9738    9.5262 H           1 NP6       0.0577
     50 H23        -2.1404   -9.1551    8.0037 H           1 NP6       0.0501
@<TRIPOS>BOND
     1     1     2   1
     2     2     3   1
     3     3     4   1
     4     4     5   2
     5     4     6  am
     6     6     7   1
     7     7     8   1
     8     7    16   1
     9     8     9   1
    10     8    10   1
    11    10    11   1
    12    10    12   1
    13    12    13   1
    14    12    15   1
    15    13    14   1
    16    15    16   1
    17    16    17   2
    18    17    18   1
    19    18    19   1
    20    19    20   2
    21    19    21  am
    22    21    22   1
    23    22    23  ar
    24    22    27  ar
    25    23    24  ar
    26    24    25  ar
    27    25    26  ar
    28    26    27  ar
    29     1    28   1
    30     1    29   1
    31     1    30   1
    32     2    31   1
    33     2    32   1
    34     3    33   1
    35     3    34   1
    36     6    35   1
    37     7    36   1
    38     8    37   1
    39     9    38   1
    40    10    39   1
    41    11    40   1
    42    12    41   1
    43    13    42   1
    44    13    43   1
    45    14    44   1
    46    21    45   1
    47    23    46   1
    48    24    47   1
    49    25    48   1
    50    26    49   1
    51    27    50   1
@<TRIPOS>SUBSTRUCTURE
     1  NP6      1

