@<TRIPOS>MOLECULE
2wca_ligand_092
    50    51
SMALL
GAST_HUCK
****
This file was generated by PARSER (from files_GN.cpp)

@<TRIPOS>ATOM
      1 C2         -4.1273  -12.1665   12.1068 C.3         1 NP6      -0.0632
      2 C1         -4.9365  -10.9131   12.5016 C.3         1 NP6      -0.0389
      3 C3         -5.0090   -9.8310   11.3972 C.3         1 NP6       0.0372
      4 C4         -5.4056  -10.3520   10.0968 C.2         1 NP6       0.1785
      5 O1         -4.6078  -10.2776    9.1697 O.2         1 NP6      -0.3969
      6 N1         -6.6088  -10.8874    9.9252 N.am        1 NP6      -0.2639
      7 C5         -7.1246  -11.4744    8.7118 C.3         1 NP6       0.1483
      8 C6         -8.1417  -10.4899    8.0645 C.3         1 NP6       0.1223
      9 O2         -7.4795   -9.2716    7.7285 O.3         1 NP6      -0.3842
     10 C7         -8.7940  -11.1247    6.7960 C.3         1 NP6       0.1187
     11 O3         -9.8612  -10.2656    6.3866 O.3         1 NP6      -0.3859
     12 C8         -9.3140  -12.5631    7.1352 C.3         1 NP6       0.1375
     13 C9         -9.7563  -13.3475    5.8658 C.3         1 NP6       0.0780
     14 O4         -8.6336  -13.9116    5.1973 O.3         1 NP6      -0.3919
     15 O5         -8.3131  -13.3621    7.8270 O.3         1 NP6      -0.2871
     16 C10        -7.7877  -12.7540    8.9097 C.2         1 NP6       0.1893
     17 N2         -8.0033  -13.2353   10.0813 N.2         1 NP6      -0.1541
     18 O6         -8.4640  -14.3813   10.4209 O.3         1 NP6      -0.1506
     19 C11        -8.1607  -15.6252    9.9723 C.2         1 NP6       0.3788
     20 O7         -8.8471  -16.6262   10.5622 O.2         1 NP6      -0.3643
     21 N3         -7.1004  -15.8199    9.1446 N.am        1 NP6      -0.2057
     22 C12        -6.4655  -16.9744    8.7749 C.ar        1 NP6       0.0683
     23 C13        -7.0360  -18.2698    8.7948 C.ar        1 NP6      -0.0414
     24 C14        -6.2703  -19.3985    8.4356 C.ar        1 NP6      -0.0756
     25 C15        -4.9305  -19.2491    8.0394 C.ar        1 NP6      -0.0773
     26 C16        -4.3583  -17.9682    7.9899 C.ar        1 NP6      -0.0756
     27 C17        -5.1213  -16.8456    8.3593 C.ar        1 NP6      -0.0414
     28 H1         -3.9848  -12.8041   12.9788 H           1 NP6       0.0231
     29 H2         -3.1438  -11.8815   11.7208 H           1 NP6       0.0231
     30 H3         -4.6494  -12.7459   11.3393 H           1 NP6       0.0231
     31 H4         -4.4671  -10.4649   13.3934 H           1 NP6       0.0287
     32 H5         -5.9458  -11.2130   12.7893 H           1 NP6       0.0287
     33 H6         -4.0248   -9.3480   11.3351 H           1 NP6       0.0502
     34 H7         -5.7157   -9.0522   11.6984 H           1 NP6       0.0502
     35 H8         -7.2138  -10.8524   10.6849 H           1 NP6       0.1888
     36 H9         -6.3197  -11.6515    7.9959 H           1 NP6       0.0821
     37 H10        -8.9326  -10.2620    8.7818 H           1 NP6       0.0672
     38 H11        -7.3449   -8.8228    8.5902 H           1 NP6       0.2103
     39 H12        -8.0419  -11.1821    6.0005 H           1 NP6       0.0653
     40 H13       -10.5927  -10.8369    6.0537 H           1 NP6       0.2100
     41 H14       -10.1909  -12.4576    7.7842 H           1 NP6       0.0708
     42 H15       -10.2879  -12.7131    5.1543 H           1 NP6       0.0588
     43 H16       -10.4264  -14.1585    6.1535 H           1 NP6       0.0588
     44 H17        -8.5780  -14.8292    5.5415 H           1 NP6       0.2095
     45 H18        -6.6493  -15.0028    8.8661 H           1 NP6       0.2276
     46 H19        -8.0163  -18.4054    9.0434 H           1 NP6       0.0501
     47 H20        -6.6820  -20.3346    8.4685 H           1 NP6       0.0577
     48 H21        -4.3694  -20.0682    7.7896 H           1 NP6       0.0487
     49 H22        -3.3772  -17.8565    7.7194 H           1 NP6       0.0577
     50 H23        -4.6752  -15.9268    8.3416 H           1 NP6       0.0501
@<TRIPOS>BOND
     1     1     2   1
     2     2     3   1
     3     3     4   1
     4     4     5   2
     5     4     6  am
     6     6     7   1
     7     7     8   1
     8     7    16   1
     9     8     9   1
    10     8    10   1
    11    10    11   1
    12    10    12   1
    13    12    13   1
    14    12    15   1
    15    13    14   1
    16    15    16   1
    17    16    17   2
    18    17    18   1
    19    18    19   1
    20    19    20   2
    21    19    21  am
    22    21    22   1
    23    22    23  ar
    24    22    27  ar
    25    23    24  ar
    26    24    25  ar
    27    25    26  ar
    28    26    27  ar
    29     1    28   1
    30     1    29   1
    31     1    30   1
    32     2    31   1
    33     2    32   1
    34     3    33   1
    35     3    34   1
    36     6    35   1
    37     7    36   1
    38     8    37   1
    39     9    38   1
    40    10    39   1
    41    11    40   1
    42    12    41   1
    43    13    42   1
    44    13    43   1
    45    14    44   1
    46    21    45   1
    47    23    46   1
    48    24    47   1
    49    25    48   1
    50    26    49   1
    51    27    50   1
@<TRIPOS>SUBSTRUCTURE
     1  NP6      1

