@<TRIPOS>MOLECULE
2wca_ligand_002
    50    51
SMALL
GAST_HUCK
****
This file was generated by PARSER (from files_GN.cpp)

@<TRIPOS>ATOM
      1 C2        -13.6157  -11.4294    2.7149 C.3         1 NP6      -0.0632
      2 C1        -12.2844  -10.8427    3.2508 C.3         1 NP6      -0.0389
      3 C3        -11.5180  -11.7897    4.2148 C.3         1 NP6       0.0372
      4 C4        -10.7571  -11.1529    5.2969 C.2         1 NP6       0.1785
      5 O1        -10.8829   -9.9528    5.5031 O.2         1 NP6      -0.3969
      6 N1        -10.0255  -11.9049    6.1041 N.am        1 NP6      -0.2639
      7 C5         -9.4122  -11.4509    7.3346 C.3         1 NP6       0.1483
      8 C6         -8.0437  -10.7392    7.0688 C.3         1 NP6       0.1223
      9 O2         -8.2274   -9.5720    6.2705 O.3         1 NP6      -0.3842
     10 C7         -7.3649  -10.3146    8.3974 C.3         1 NP6       0.1187
     11 O3         -6.0522   -9.8159    8.1229 O.3         1 NP6      -0.3859
     12 C8         -7.2841  -11.5388    9.3636 C.3         1 NP6       0.1375
     13 C9         -6.8594  -11.1689   10.8082 C.3         1 NP6       0.0780
     14 O4         -7.5143   -9.9855   11.2673 O.3         1 NP6      -0.3919
     15 O5         -8.5474  -12.2247    9.4555 O.3         1 NP6      -0.2871
     16 C10        -9.2122  -12.5077    8.3216 C.2         1 NP6       0.1893
     17 N2         -9.8734  -13.6169    8.2865 N.2         1 NP6      -0.1541
     18 O6         -9.6640  -14.5410    9.1428 O.3         1 NP6      -0.1506
     19 C11       -10.5002  -15.4755    9.6416 C.2         1 NP6       0.3788
     20 O7         -9.9399  -16.3215   10.5302 O.2         1 NP6      -0.3643
     21 N3        -11.8397  -15.3920    9.4068 N.am        1 NP6      -0.2057
     22 C12       -12.8529  -15.9634   10.1204 C.ar        1 NP6       0.0683
     23 C13       -12.7134  -17.0923   10.9705 C.ar        1 NP6      -0.0414
     24 C14       -13.8099  -17.5608   11.7212 C.ar        1 NP6      -0.0756
     25 C15       -15.0537  -16.9194   11.6234 C.ar        1 NP6      -0.0773
     26 C16       -15.2204  -15.8161   10.7761 C.ar        1 NP6      -0.0756
     27 C17       -14.1195  -15.3437   10.0267 C.ar        1 NP6      -0.0414
     28 H1        -14.0547  -10.7401    1.9978 H           1 NP6       0.0231
     29 H2        -14.3184  -11.5632    3.5415 H           1 NP6       0.0231
     30 H3        -13.4487  -12.3874    2.2300 H           1 NP6       0.0231
     31 H4        -12.5509   -9.9214    3.7675 H           1 NP6       0.0287
     32 H5        -11.6346  -10.5895    2.4018 H           1 NP6       0.0287
     33 H6        -10.8386  -12.4103    3.6219 H           1 NP6       0.0502
     34 H7        -12.2327  -12.4664    4.6872 H           1 NP6       0.0502
     35 H8         -9.9676  -12.8549    5.8988 H           1 NP6       0.1888
     36 H9        -10.0883  -10.7426    7.8246 H           1 NP6       0.0821
     37 H10        -7.3755  -11.4189    6.5296 H           1 NP6       0.0672
     38 H11        -7.8512   -9.7994    5.3899 H           1 NP6       0.2103
     39 H12        -7.9595   -9.5211    8.8647 H           1 NP6       0.0653
     40 H13        -5.7636   -9.3859    8.9590 H           1 NP6       0.2100
     41 H14        -6.5482  -12.2503    8.9698 H           1 NP6       0.0708
     42 H15        -5.7856  -11.0153   10.8581 H           1 NP6       0.0588
     43 H16        -7.1215  -11.9866   11.4870 H           1 NP6       0.0588
     44 H17        -7.2681   -9.8865   12.2141 H           1 NP6       0.2095
     45 H18       -12.1057  -14.6870    8.7927 H           1 NP6       0.2276
     46 H19       -11.8248  -17.5790   11.0434 H           1 NP6       0.0501
     47 H20       -13.6973  -18.3751   12.3252 H           1 NP6       0.0577
     48 H21       -15.8477  -17.2593   12.1776 H           1 NP6       0.0487
     49 H22       -16.1234  -15.3442   10.7130 H           1 NP6       0.0577
     50 H23       -14.2577  -14.5298    9.4221 H           1 NP6       0.0501
@<TRIPOS>BOND
     1     1     2   1
     2     2     3   1
     3     3     4   1
     4     4     5   2
     5     4     6  am
     6     6     7   1
     7     7     8   1
     8     7    16   1
     9     8     9   1
    10     8    10   1
    11    10    11   1
    12    10    12   1
    13    12    13   1
    14    12    15   1
    15    13    14   1
    16    15    16   1
    17    16    17   2
    18    17    18   1
    19    18    19   1
    20    19    20   2
    21    19    21  am
    22    21    22   1
    23    22    23  ar
    24    22    27  ar
    25    23    24  ar
    26    24    25  ar
    27    25    26  ar
    28    26    27  ar
    29     1    28   1
    30     1    29   1
    31     1    30   1
    32     2    31   1
    33     2    32   1
    34     3    33   1
    35     3    34   1
    36     6    35   1
    37     7    36   1
    38     8    37   1
    39     9    38   1
    40    10    39   1
    41    11    40   1
    42    12    41   1
    43    13    42   1
    44    13    43   1
    45    14    44   1
    46    21    45   1
    47    23    46   1
    48    24    47   1
    49    25    48   1
    50    26    49   1
    51    27    50   1
@<TRIPOS>SUBSTRUCTURE
     1  NP6      1

