@<TRIPOS>MOLECULE
2wca_ligand_026
    50    51
SMALL
GAST_HUCK
****
This file was generated by PARSER (from files_GN.cpp)

@<TRIPOS>ATOM
      1 C2         -0.4390  -11.3293    6.0336 C.3         1 NP6      -0.0632
      2 C1         -0.4363  -10.5876    7.3883 C.3         1 NP6      -0.0389
      3 C3         -1.4449   -9.4116    7.4915 C.3         1 NP6       0.0372
      4 C4         -2.8379   -9.8234    7.5731 C.2         1 NP6       0.1785
      5 O1         -3.3283  -10.4163    6.6216 O.2         1 NP6      -0.3969
      6 N1         -3.5401   -9.5784    8.6780 N.am        1 NP6      -0.2639
      7 C5         -4.9124   -9.9348    8.9209 C.3         1 NP6       0.1483
      8 C6         -5.5653   -8.9455    9.9325 C.3         1 NP6       0.1223
      9 O2         -5.6697   -7.6433    9.3495 O.3         1 NP6      -0.3842
     10 C7         -6.9754   -9.4323   10.3744 C.3         1 NP6       0.1187
     11 O3         -7.4795   -8.5736   11.3976 O.3         1 NP6      -0.3859
     12 C8         -6.8868  -10.9243   10.8248 C.3         1 NP6       0.1375
     13 C9         -8.2534  -11.5642   11.1803 C.3         1 NP6       0.0780
     14 O4         -9.1480  -10.6654   11.8393 O.3         1 NP6      -0.3919
     15 O5         -6.3034  -11.7195    9.7618 O.3         1 NP6      -0.2871
     16 C10        -5.0705  -11.2978    9.4181 C.2         1 NP6       0.1893
     17 N2         -4.0665  -12.0936    9.5853 N.2         1 NP6      -0.1541
     18 O6         -4.2127  -13.3502    9.8011 O.3         1 NP6      -0.1506
     19 C11        -3.7235  -14.0469   10.8583 C.2         1 NP6       0.3788
     20 O7         -3.9217  -15.3803   10.7926 O.2         1 NP6      -0.3643
     21 N3         -3.2474  -13.3896   11.9443 N.am        1 NP6      -0.2057
     22 C12        -2.9799  -13.8522   13.1967 C.ar        1 NP6       0.0683
     23 C13        -3.0758  -15.1910   13.6421 C.ar        1 NP6      -0.0414
     24 C14        -2.8131  -15.5289   14.9808 C.ar        1 NP6      -0.0756
     25 C15        -2.4382  -14.5311   15.9042 C.ar        1 NP6      -0.0773
     26 C16        -2.3226  -13.1987   15.4774 C.ar        1 NP6      -0.0756
     27 C17        -2.5973  -12.8625   14.1369 C.ar        1 NP6      -0.0414
     28 H1          0.3473  -12.0817    6.0307 H           1 NP6       0.0231
     29 H2         -0.2602  -10.6294    5.2192 H           1 NP6       0.0231
     30 H3         -1.3935  -11.8291    5.8755 H           1 NP6       0.0231
     31 H4          0.5708  -10.1857    7.5540 H           1 NP6       0.0287
     32 H5         -0.6396  -11.3046    8.1907 H           1 NP6       0.0287
     33 H6         -1.3143   -8.7451    6.6344 H           1 NP6       0.0502
     34 H7         -1.1893   -8.8240    8.3793 H           1 NP6       0.0502
     35 H8         -3.0684   -9.1418    9.4063 H           1 NP6       0.1888
     36 H9         -5.4893   -9.8823    7.9951 H           1 NP6       0.0821
     37 H10        -4.9208   -8.8627   10.8166 H           1 NP6       0.0672
     38 H11        -5.8320   -7.0276   10.1040 H           1 NP6       0.2103
     39 H12        -7.6606   -9.3670    9.5238 H           1 NP6       0.0653
     40 H13        -6.9063   -8.7158   12.1787 H           1 NP6       0.2100
     41 H14        -6.2582  -10.9905   11.7215 H           1 NP6       0.0708
     42 H15        -8.0871  -12.4236   11.8422 H           1 NP6       0.0588
     43 H16        -8.7536  -11.9205   10.2741 H           1 NP6       0.0588
     44 H17        -8.6452  -10.3155   12.6101 H           1 NP6       0.2095
     45 H18        -3.1934  -12.4277   11.8374 H           1 NP6       0.2276
     46 H19        -3.3382  -15.9379   13.0150 H           1 NP6       0.0501
     47 H20        -2.8944  -16.5026   15.2955 H           1 NP6       0.0577
     48 H21        -2.2502  -14.7790   16.8844 H           1 NP6       0.0487
     49 H22        -2.0437  -12.4733   16.1478 H           1 NP6       0.0577
     50 H23        -2.5260  -11.8753   13.8614 H           1 NP6       0.0501
@<TRIPOS>BOND
     1     1     2   1
     2     2     3   1
     3     3     4   1
     4     4     5   2
     5     4     6  am
     6     6     7   1
     7     7     8   1
     8     7    16   1
     9     8     9   1
    10     8    10   1
    11    10    11   1
    12    10    12   1
    13    12    13   1
    14    12    15   1
    15    13    14   1
    16    15    16   1
    17    16    17   2
    18    17    18   1
    19    18    19   1
    20    19    20   2
    21    19    21  am
    22    21    22   1
    23    22    23  ar
    24    22    27  ar
    25    23    24  ar
    26    24    25  ar
    27    25    26  ar
    28    26    27  ar
    29     1    28   1
    30     1    29   1
    31     1    30   1
    32     2    31   1
    33     2    32   1
    34     3    33   1
    35     3    34   1
    36     6    35   1
    37     7    36   1
    38     8    37   1
    39     9    38   1
    40    10    39   1
    41    11    40   1
    42    12    41   1
    43    13    42   1
    44    13    43   1
    45    14    44   1
    46    21    45   1
    47    23    46   1
    48    24    47   1
    49    25    48   1
    50    26    49   1
    51    27    50   1
@<TRIPOS>SUBSTRUCTURE
     1  NP6      1

