@<TRIPOS>MOLECULE
2wca_ligand_073
    50    51
SMALL
GAST_HUCK
****
This file was generated by PARSER (from files_GN.cpp)

@<TRIPOS>ATOM
      1 C2         -9.7043  -12.2705    8.8484 C.3         1 NP6      -0.0632
      2 C1         -9.7837  -10.7376    9.0353 C.3         1 NP6      -0.0389
      3 C3         -8.7182  -10.1547    9.9997 C.3         1 NP6       0.0372
      4 C4         -7.3484  -10.3569    9.5475 C.2         1 NP6       0.1785
      5 O1         -6.8470   -9.5336    8.7856 O.2         1 NP6      -0.3969
      6 N1         -6.6418  -11.3751   10.0240 N.am        1 NP6      -0.2639
      7 C5         -5.2225  -11.5825    9.9027 C.3         1 NP6       0.1483
      8 C6         -4.4527  -10.5354   10.7818 C.3         1 NP6       0.1223
      9 O2         -4.6515  -10.8432   12.1662 O.3         1 NP6      -0.3842
     10 C7         -2.9338  -10.4735   10.4634 C.3         1 NP6       0.1187
     11 O3         -2.3310   -9.3526   11.1174 O.3         1 NP6      -0.3859
     12 C8         -2.7640  -10.3740    8.9216 C.3         1 NP6       0.1375
     13 C9         -1.2848  -10.3222    8.4666 C.3         1 NP6       0.0780
     14 O4         -0.6710   -9.0807    8.8130 O.3         1 NP6      -0.3919
     15 O5         -3.3681  -11.5362    8.3238 O.3         1 NP6      -0.2871
     16 C10        -4.6851  -11.6911    8.5369 C.2         1 NP6       0.1893
     17 N2         -5.2368  -12.3732    7.6034 N.2         1 NP6      -0.1541
     18 O6         -6.4424  -12.7249    7.3739 O.3         1 NP6      -0.1506
     19 C11        -6.6982  -13.8293    6.6114 C.2         1 NP6       0.3788
     20 O7         -5.7124  -14.7337    6.3626 O.2         1 NP6      -0.3643
     21 N3         -7.9106  -14.1260    6.0959 N.am        1 NP6      -0.2057
     22 C12        -8.9778  -13.2920    5.8978 C.ar        1 NP6       0.0683
     23 C13        -8.8470  -11.8914    5.7330 C.ar        1 NP6      -0.0414
     24 C14        -9.9626  -11.1055    5.3889 C.ar        1 NP6      -0.0756
     25 C15       -11.2145  -11.7080    5.1856 C.ar        1 NP6      -0.0773
     26 C16       -11.3573  -13.0966    5.3417 C.ar        1 NP6      -0.0756
     27 C17       -10.2383  -13.8838    5.6721 C.ar        1 NP6      -0.0414
     28 H1        -10.4386  -12.5905    8.1037 H           1 NP6       0.0231
     29 H2         -9.9130  -12.7724    9.7980 H           1 NP6       0.0231
     30 H3         -8.7125  -12.5674    8.5061 H           1 NP6       0.0231
     31 H4        -10.7804  -10.5008    9.4217 H           1 NP6       0.0287
     32 H5         -9.6930  -10.2459    8.0610 H           1 NP6       0.0287
     33 H6         -8.8485  -10.5876   10.9959 H           1 NP6       0.0502
     34 H7         -8.8930   -9.0802   10.1028 H           1 NP6       0.0502
     35 H8         -7.1133  -12.0026   10.5972 H           1 NP6       0.1888
     36 H9         -5.0342  -12.5641   10.3566 H           1 NP6       0.0821
     37 H10        -4.8630   -9.5370   10.6022 H           1 NP6       0.0672
     38 H11        -4.4974  -10.0036   12.6454 H           1 NP6       0.2103
     39 H12        -2.4493  -11.3881   10.8267 H           1 NP6       0.0653
     40 H13        -2.3182   -9.5816   12.0717 H           1 NP6       0.2100
     41 H14        -3.2539   -9.4681    8.5494 H           1 NP6       0.0708
     42 H15        -1.2323  -10.4327    7.3783 H           1 NP6       0.0588
     43 H16        -0.7126  -11.1380    8.9197 H           1 NP6       0.0588
     44 H17        -1.1996   -8.3970    8.3442 H           1 NP6       0.2095
     45 H18        -8.0173  -15.0387    5.7702 H           1 NP6       0.2276
     46 H19        -7.9406  -11.4363    5.8468 H           1 NP6       0.0501
     47 H20        -9.8549  -10.0984    5.2653 H           1 NP6       0.0577
     48 H21       -12.0183  -11.1364    4.9233 H           1 NP6       0.0487
     49 H22       -12.2697  -13.5375    5.1997 H           1 NP6       0.0577
     50 H23       -10.3537  -14.9003    5.7547 H           1 NP6       0.0501
@<TRIPOS>BOND
     1     1     2   1
     2     2     3   1
     3     3     4   1
     4     4     5   2
     5     4     6  am
     6     6     7   1
     7     7     8   1
     8     7    16   1
     9     8     9   1
    10     8    10   1
    11    10    11   1
    12    10    12   1
    13    12    13   1
    14    12    15   1
    15    13    14   1
    16    15    16   1
    17    16    17   2
    18    17    18   1
    19    18    19   1
    20    19    20   2
    21    19    21  am
    22    21    22   1
    23    22    23  ar
    24    22    27  ar
    25    23    24  ar
    26    24    25  ar
    27    25    26  ar
    28    26    27  ar
    29     1    28   1
    30     1    29   1
    31     1    30   1
    32     2    31   1
    33     2    32   1
    34     3    33   1
    35     3    34   1
    36     6    35   1
    37     7    36   1
    38     8    37   1
    39     9    38   1
    40    10    39   1
    41    11    40   1
    42    12    41   1
    43    13    42   1
    44    13    43   1
    45    14    44   1
    46    21    45   1
    47    23    46   1
    48    24    47   1
    49    25    48   1
    50    26    49   1
    51    27    50   1
@<TRIPOS>SUBSTRUCTURE
     1  NP6      1

