@<TRIPOS>MOLECULE
2wca_ligand_004
    50    51
SMALL
GAST_HUCK
****
This file was generated by PARSER (from files_GN.cpp)

@<TRIPOS>ATOM
      1 C2        -11.5958  -11.2793    3.4946 C.3         1 NP6      -0.0632
      2 C1        -11.3599  -11.4127    5.0197 C.3         1 NP6      -0.0389
      3 C3         -9.9976  -12.0807    5.3838 C.3         1 NP6       0.0372
      4 C4         -9.4314  -11.6277    6.6464 C.2         1 NP6       0.1785
      5 O1         -9.3233  -10.4151    6.7863 O.2         1 NP6      -0.3969
      6 N1         -9.0184  -12.4914    7.5754 N.am        1 NP6      -0.2639
      7 C5         -8.4853  -12.2961    8.9116 C.3         1 NP6       0.1483
      8 C6         -8.4779  -10.8368    9.4717 C.3         1 NP6       0.1223
      9 O2         -9.8294  -10.3970    9.5754 O.3         1 NP6      -0.3842
     10 C7         -7.7532  -10.7361   10.8457 C.3         1 NP6       0.1187
     11 O3         -7.7219   -9.3822   11.2953 O.3         1 NP6      -0.3859
     12 C8         -6.3150  -11.3068   10.6550 C.3         1 NP6       0.1375
     13 C9         -5.4563  -11.2968   11.9492 C.3         1 NP6       0.0780
     14 O4         -4.6745  -10.1067   12.0500 O.3         1 NP6      -0.3919
     15 O5         -6.3942  -12.6630   10.1647 O.3         1 NP6      -0.2871
     16 C10        -7.1860  -12.9488    9.1044 C.2         1 NP6       0.1893
     17 N2         -7.0383  -14.1344    8.6309 N.2         1 NP6      -0.1541
     18 O6         -6.0296  -14.8805    8.8464 O.3         1 NP6      -0.1506
     19 C11        -5.9606  -16.2361    8.7429 C.2         1 NP6       0.3788
     20 O7         -4.7166  -16.7535    8.7838 O.2         1 NP6      -0.3643
     21 N3         -6.9737  -17.1284    8.6147 N.am        1 NP6      -0.2057
     22 C12        -8.3158  -16.9419    8.7781 C.ar        1 NP6       0.0683
     23 C13        -8.8767  -16.0313    9.7002 C.ar        1 NP6      -0.0414
     24 C14       -10.2751  -15.8760    9.7977 C.ar        1 NP6      -0.0756
     25 C15       -11.1252  -16.6717    9.0110 C.ar        1 NP6      -0.0773
     26 C16       -10.5802  -17.6472    8.1565 C.ar        1 NP6      -0.0756
     27 C17        -9.1807  -17.7932    8.0530 C.ar        1 NP6      -0.0414
     28 H1        -12.5728  -10.8260    3.3059 H           1 NP6       0.0231
     29 H2        -11.5670  -12.2586    3.0147 H           1 NP6       0.0231
     30 H3        -10.8310  -10.6459    3.0392 H           1 NP6       0.0231
     31 H4        -12.1697  -12.0142    5.4449 H           1 NP6       0.0287
     32 H5        -11.4296  -10.4105    5.4486 H           1 NP6       0.0287
     33 H6         -9.2729  -11.8610    4.5962 H           1 NP6       0.0502
     34 H7        -10.1381  -13.1668    5.3870 H           1 NP6       0.0502
     35 H8         -9.1135  -13.4256    7.3283 H           1 NP6       0.1888
     36 H9         -9.1742  -12.8507    9.5578 H           1 NP6       0.0821
     37 H10        -7.9477  -10.1788    8.7818 H           1 NP6       0.0672
     38 H11        -9.8593   -9.5115    9.1564 H           1 NP6       0.2103
     39 H12        -8.3005  -11.3324   11.5841 H           1 NP6       0.0653
     40 H13        -7.4495   -9.4335   12.2390 H           1 NP6       0.2100
     41 H14        -5.7838  -10.7150    9.9027 H           1 NP6       0.0708
     42 H15        -4.7538  -12.1361   11.9380 H           1 NP6       0.0588
     43 H16        -6.0773  -11.3901   12.8448 H           1 NP6       0.0588
     44 H17        -5.2212   -9.4731   12.5574 H           1 NP6       0.2095
     45 H18        -6.7028  -18.0329    8.3892 H           1 NP6       0.2276
     46 H19        -8.2767  -15.4741   10.3164 H           1 NP6       0.0501
     47 H20       -10.6697  -15.1925   10.4483 H           1 NP6       0.0577
     48 H21       -12.1398  -16.5541    9.0718 H           1 NP6       0.0487
     49 H22       -11.1947  -18.2466    7.6039 H           1 NP6       0.0577
     50 H23        -8.7999  -18.5076    7.4281 H           1 NP6       0.0501
@<TRIPOS>BOND
     1     1     2   1
     2     2     3   1
     3     3     4   1
     4     4     5   2
     5     4     6  am
     6     6     7   1
     7     7     8   1
     8     7    16   1
     9     8     9   1
    10     8    10   1
    11    10    11   1
    12    10    12   1
    13    12    13   1
    14    12    15   1
    15    13    14   1
    16    15    16   1
    17    16    17   2
    18    17    18   1
    19    18    19   1
    20    19    20   2
    21    19    21  am
    22    21    22   1
    23    22    23  ar
    24    22    27  ar
    25    23    24  ar
    26    24    25  ar
    27    25    26  ar
    28    26    27  ar
    29     1    28   1
    30     1    29   1
    31     1    30   1
    32     2    31   1
    33     2    32   1
    34     3    33   1
    35     3    34   1
    36     6    35   1
    37     7    36   1
    38     8    37   1
    39     9    38   1
    40    10    39   1
    41    11    40   1
    42    12    41   1
    43    13    42   1
    44    13    43   1
    45    14    44   1
    46    21    45   1
    47    23    46   1
    48    24    47   1
    49    25    48   1
    50    26    49   1
    51    27    50   1
@<TRIPOS>SUBSTRUCTURE
     1  NP6      1

