@<TRIPOS>MOLECULE
2wca_ligand_075
    50    51
SMALL
GAST_HUCK
****
This file was generated by PARSER (from files_GN.cpp)

@<TRIPOS>ATOM
      1 C2         -1.9521  -10.8978   13.4964 C.3         1 NP6      -0.0632
      2 C1         -3.3648  -10.4881   13.9759 C.3         1 NP6      -0.0389
      3 C3         -4.4746  -11.4786   13.5255 C.3         1 NP6       0.0372
      4 C4         -4.8641  -11.3771   12.1281 C.2         1 NP6       0.1785
      5 O1         -4.6848  -12.3411   11.3907 O.2         1 NP6      -0.3969
      6 N1         -5.5003  -10.2905   11.6923 N.am        1 NP6      -0.2639
      7 C5         -6.2516  -10.1453   10.4735 C.3         1 NP6       0.1483
      8 C6         -7.7470  -10.5063   10.7673 C.3         1 NP6       0.1223
      9 O2         -8.3224   -9.5500   11.6573 O.3         1 NP6      -0.3842
     10 C7         -8.6055  -10.5484    9.4766 C.3         1 NP6       0.1187
     11 O3         -9.9270  -11.0149    9.7710 O.3         1 NP6      -0.3859
     12 C8         -7.8983  -11.4635    8.4358 C.3         1 NP6       0.1375
     13 C9         -8.6324  -11.4803    7.0695 C.3         1 NP6       0.0780
     14 O4         -8.7095  -10.1722    6.5080 O.3         1 NP6      -0.3919
     15 O5         -6.5457  -11.0091    8.2039 O.3         1 NP6      -0.2871
     16 C10        -5.7468  -10.8404    9.2815 C.2         1 NP6       0.1893
     17 N2         -4.4816  -10.9985    9.1225 N.2         1 NP6      -0.1541
     18 O6         -3.9717  -11.4625    8.0560 O.3         1 NP6      -0.1506
     19 C11        -2.6737  -11.6174    7.6873 C.2         1 NP6       0.3788
     20 O7         -2.4922  -12.2884    6.5253 O.2         1 NP6      -0.3643
     21 N3         -1.5267  -11.2443    8.3079 N.am        1 NP6      -0.2057
     22 C12        -1.3022  -10.4558    9.3986 C.ar        1 NP6       0.0683
     23 C13        -2.1456   -9.3941    9.7986 C.ar        1 NP6      -0.0414
     24 C14        -1.8080   -8.5841   10.9002 C.ar        1 NP6      -0.0756
     25 C15        -0.5967   -8.7931   11.5861 C.ar        1 NP6      -0.0773
     26 C16         0.2816   -9.8041   11.1584 C.ar        1 NP6      -0.0756
     27 C17        -0.0752  -10.6328   10.0771 C.ar        1 NP6      -0.0414
     28 H1         -1.2154  -10.1696   13.8503 H           1 NP6       0.0231
     29 H2         -1.9195  -10.9369   12.4014 H           1 NP6       0.0231
     30 H3         -1.6912  -11.8828   13.8959 H           1 NP6       0.0231
     31 H4         -3.5982   -9.4813   13.6165 H           1 NP6       0.0287
     32 H5         -3.3532  -10.4570   15.0678 H           1 NP6       0.0287
     33 H6         -5.3678  -11.2933   14.1309 H           1 NP6       0.0502
     34 H7         -4.1440  -12.4953   13.7646 H           1 NP6       0.0502
     35 H8         -5.6353   -9.5915   12.3556 H           1 NP6       0.1888
     36 H9         -6.2234   -9.0799   10.2261 H           1 NP6       0.0821
     37 H10        -7.7908  -11.4892   11.2479 H           1 NP6       0.0672
     38 H11        -7.7767   -9.5836   12.4676 H           1 NP6       0.2103
     39 H12        -8.6893   -9.5381    9.0686 H           1 NP6       0.0653
     40 H13        -9.8214  -11.6931   10.4709 H           1 NP6       0.2100
     41 H14        -7.8677  -12.4897    8.8181 H           1 NP6       0.0708
     42 H15        -9.6453  -11.8688    7.1895 H           1 NP6       0.0588
     43 H16        -8.0950  -12.1326    6.3748 H           1 NP6       0.0588
     44 H17        -7.8062   -9.9767    6.1804 H           1 NP6       0.2095
     45 H18        -0.7230  -11.6166    7.9096 H           1 NP6       0.2276
     46 H19        -2.9847   -9.1702    9.2629 H           1 NP6       0.0501
     47 H20        -2.4313   -7.8334   11.2008 H           1 NP6       0.0577
     48 H21        -0.3448   -8.1920   12.3754 H           1 NP6       0.0487
     49 H22         1.1715   -9.9487   11.6467 H           1 NP6       0.0577
     50 H23         0.5761  -11.3651    9.7850 H           1 NP6       0.0501
@<TRIPOS>BOND
     1     1     2   1
     2     2     3   1
     3     3     4   1
     4     4     5   2
     5     4     6  am
     6     6     7   1
     7     7     8   1
     8     7    16   1
     9     8     9   1
    10     8    10   1
    11    10    11   1
    12    10    12   1
    13    12    13   1
    14    12    15   1
    15    13    14   1
    16    15    16   1
    17    16    17   2
    18    17    18   1
    19    18    19   1
    20    19    20   2
    21    19    21  am
    22    21    22   1
    23    22    23  ar
    24    22    27  ar
    25    23    24  ar
    26    24    25  ar
    27    25    26  ar
    28    26    27  ar
    29     1    28   1
    30     1    29   1
    31     1    30   1
    32     2    31   1
    33     2    32   1
    34     3    33   1
    35     3    34   1
    36     6    35   1
    37     7    36   1
    38     8    37   1
    39     9    38   1
    40    10    39   1
    41    11    40   1
    42    12    41   1
    43    13    42   1
    44    13    43   1
    45    14    44   1
    46    21    45   1
    47    23    46   1
    48    24    47   1
    49    25    48   1
    50    26    49   1
    51    27    50   1
@<TRIPOS>SUBSTRUCTURE
     1  NP6      1

