@<TRIPOS>MOLECULE
2wca_ligand_047
    50    51
SMALL
GAST_HUCK
****
This file was generated by PARSER (from files_GN.cpp)

@<TRIPOS>ATOM
      1 C2        -12.7485  -10.9487    2.0269 C.3         1 NP6      -0.0632
      2 C1        -11.4857  -11.2235    2.8716 C.3         1 NP6      -0.0389
      3 C3        -11.7408  -11.0901    4.3968 C.3         1 NP6       0.0372
      4 C4        -10.5217  -11.1137    5.1785 C.2         1 NP6       0.1785
      5 O1        -10.0500  -10.0521    5.5730 O.2         1 NP6      -0.3969
      6 N1         -9.9595  -12.2725    5.5017 N.am        1 NP6      -0.2639
      7 C5         -8.7450  -12.4357    6.2583 C.3         1 NP6       0.1483
      8 C6         -8.3225  -13.9382    6.2979 C.3         1 NP6       0.1223
      9 O2         -8.0718  -14.4498    4.9866 O.3         1 NP6      -0.3842
     10 C7         -7.0484  -14.1577    7.1710 C.3         1 NP6       0.1187
     11 O3         -6.7359  -15.5427    7.2946 O.3         1 NP6      -0.3859
     12 C8         -7.2545  -13.4751    8.5565 C.3         1 NP6       0.1375
     13 C9         -5.9902  -13.4435    9.4520 C.3         1 NP6       0.0780
     14 O4         -5.3587  -14.7176    9.5640 O.3         1 NP6      -0.3919
     15 O5         -7.6568  -12.0816    8.3783 O.3         1 NP6      -0.2871
     16 C10        -8.7628  -11.9281    7.6332 C.2         1 NP6       0.1893
     17 N2         -9.7794  -11.3531    8.1628 N.2         1 NP6      -0.1541
     18 O6         -9.8726  -10.7345    9.2896 O.3         1 NP6      -0.1506
     19 C11        -8.9481  -10.0374   10.0119 C.2         1 NP6       0.3788
     20 O7         -9.2969   -9.6425   11.2604 O.2         1 NP6      -0.3643
     21 N3         -7.7526   -9.7200    9.4751 N.am        1 NP6      -0.2057
     22 C12        -6.7188   -9.1231   10.1159 C.ar        1 NP6       0.0683
     23 C13        -6.4109   -7.7742    9.8331 C.ar        1 NP6      -0.0414
     24 C14        -5.2261   -7.2109   10.3355 C.ar        1 NP6      -0.0756
     25 C15        -4.3323   -7.9971   11.0873 C.ar        1 NP6      -0.0773
     26 C16        -4.6484   -9.3353   11.3869 C.ar        1 NP6      -0.0756
     27 C17        -5.8481   -9.8933   10.9118 C.ar        1 NP6      -0.0414
     28 H1        -12.5177  -11.0611    0.9656 H           1 NP6       0.0231
     29 H2        -13.1056   -9.9299    2.1937 H           1 NP6       0.0231
     30 H3        -13.5441  -11.6493    2.2866 H           1 NP6       0.0231
     31 H4        -10.7156  -10.5133    2.5630 H           1 NP6       0.0287
     32 H5        -11.1240  -12.2310    2.6525 H           1 NP6       0.0287
     33 H6        -12.3998  -11.8963    4.7263 H           1 NP6       0.0502
     34 H7        -12.2666  -10.1516    4.5821 H           1 NP6       0.0502
     35 H8        -10.3919  -13.0788    5.1695 H           1 NP6       0.1888
     36 H9         -7.9539  -11.8973    5.7318 H           1 NP6       0.0821
     37 H10        -9.1343  -14.5314    6.7256 H           1 NP6       0.0672
     38 H11        -8.9235  -14.3566    4.5133 H           1 NP6       0.2103
     39 H12        -6.1973  -13.6813    6.6788 H           1 NP6       0.0653
     40 H13        -7.5543  -16.0221    7.0494 H           1 NP6       0.2100
     41 H14        -8.0283  -14.0178    9.1064 H           1 NP6       0.0708
     42 H15        -6.2820  -13.1112   10.4525 H           1 NP6       0.0588
     43 H16        -5.2665  -12.7214    9.0515 H           1 NP6       0.0588
     44 H17        -4.6667  -14.5823   10.2516 H           1 NP6       0.2095
     45 H18        -7.6196   -9.9540    8.5459 H           1 NP6       0.2276
     46 H19        -7.0327   -7.2167    9.2402 H           1 NP6       0.0501
     47 H20        -5.0076   -6.2338   10.1347 H           1 NP6       0.0577
     48 H21        -3.4644   -7.5874   11.4406 H           1 NP6       0.0487
     49 H22        -4.0049   -9.9037   11.9376 H           1 NP6       0.0577
     50 H23        -6.0576  -10.8779   11.0982 H           1 NP6       0.0501
@<TRIPOS>BOND
     1     1     2   1
     2     2     3   1
     3     3     4   1
     4     4     5   2
     5     4     6  am
     6     6     7   1
     7     7     8   1
     8     7    16   1
     9     8     9   1
    10     8    10   1
    11    10    11   1
    12    10    12   1
    13    12    13   1
    14    12    15   1
    15    13    14   1
    16    15    16   1
    17    16    17   2
    18    17    18   1
    19    18    19   1
    20    19    20   2
    21    19    21  am
    22    21    22   1
    23    22    23  ar
    24    22    27  ar
    25    23    24  ar
    26    24    25  ar
    27    25    26  ar
    28    26    27  ar
    29     1    28   1
    30     1    29   1
    31     1    30   1
    32     2    31   1
    33     2    32   1
    34     3    33   1
    35     3    34   1
    36     6    35   1
    37     7    36   1
    38     8    37   1
    39     9    38   1
    40    10    39   1
    41    11    40   1
    42    12    41   1
    43    13    42   1
    44    13    43   1
    45    14    44   1
    46    21    45   1
    47    23    46   1
    48    24    47   1
    49    25    48   1
    50    26    49   1
    51    27    50   1
@<TRIPOS>SUBSTRUCTURE
     1  NP6      1

