@<TRIPOS>MOLECULE
2wca_ligand_069
    50    51
SMALL
GAST_HUCK
****
This file was generated by PARSER (from files_GN.cpp)

@<TRIPOS>ATOM
      1 C2         -1.8413  -16.6266    7.4937 C.3         1 NP6      -0.0632
      2 C1         -2.1127  -16.0975    6.0627 C.3         1 NP6      -0.0389
      3 C3         -2.9301  -14.7767    5.9913 C.3         1 NP6       0.0372
      4 C4         -4.3099  -14.8998    6.4358 C.2         1 NP6       0.1785
      5 O1         -5.1717  -15.1870    5.6041 O.2         1 NP6      -0.3969
      6 N1         -4.6136  -14.6957    7.7136 N.am        1 NP6      -0.2639
      7 C5         -5.8918  -14.7783    8.3707 C.3         1 NP6       0.1483
      8 C6         -6.5471  -16.1897    8.2737 C.3         1 NP6       0.1223
      9 O2         -5.6812  -17.1621    8.8575 O.3         1 NP6      -0.3842
     10 C7         -7.9548  -16.2218    8.9450 C.3         1 NP6       0.1187
     11 O3         -8.6252  -17.4403    8.6235 O.3         1 NP6      -0.3859
     12 C8         -8.7991  -14.9897    8.4821 C.3         1 NP6       0.1375
     13 C9        -10.1856  -14.9147    9.1762 C.3         1 NP6       0.0780
     14 O4        -10.1293  -15.1878   10.5718 O.3         1 NP6      -0.3919
     15 O5         -8.0481  -13.7623    8.6857 O.3         1 NP6      -0.2871
     16 C10        -6.8807  -13.7712    8.0057 C.2         1 NP6       0.1893
     17 N2         -6.7263  -12.9941    6.9868 N.2         1 NP6      -0.1541
     18 O6         -7.4958  -12.0324    6.6452 O.3         1 NP6      -0.1506
     19 C11        -7.7580  -10.9303    7.3880 C.2         1 NP6       0.3788
     20 O7         -8.6775  -10.0568    6.9054 O.2         1 NP6      -0.3643
     21 N3         -7.0467  -10.6657    8.5079 N.am        1 NP6      -0.2057
     22 C12        -7.1904   -9.5729    9.2917 C.ar        1 NP6       0.0683
     23 C13        -6.1597   -8.6104    9.3408 C.ar        1 NP6      -0.0414
     24 C14        -6.2641   -7.5052   10.2005 C.ar        1 NP6      -0.0756
     25 C15        -7.3798   -7.3785   11.0528 C.ar        1 NP6      -0.0773
     26 C16        -8.4057   -8.3409   11.0114 C.ar        1 NP6      -0.0756
     27 C17        -8.3185   -9.4307   10.1296 C.ar        1 NP6      -0.0414
     28 H1         -1.1860  -17.4985    7.4420 H           1 NP6       0.0231
     29 H2         -2.7666  -16.9293    7.9767 H           1 NP6       0.0231
     30 H3         -1.3545  -15.8553    8.0963 H           1 NP6       0.0231
     31 H4         -2.6226  -16.8752    5.4823 H           1 NP6       0.0287
     32 H5         -1.1460  -15.9171    5.5892 H           1 NP6       0.0287
     33 H6         -2.9134  -14.4301    4.9545 H           1 NP6       0.0502
     34 H7         -2.4236  -14.0080    6.5802 H           1 NP6       0.0502
     35 H8         -3.8603  -14.4761    8.2855 H           1 NP6       0.1888
     36 H9         -5.6706  -14.5959    9.4248 H           1 NP6       0.0821
     37 H10        -6.6730  -16.4568    7.2189 H           1 NP6       0.0672
     38 H11        -6.2246  -17.9739    8.9432 H           1 NP6       0.2103
     39 H12        -7.8266  -16.1822   10.0286 H           1 NP6       0.0653
     40 H13        -8.7962  -17.3911    7.6609 H           1 NP6       0.2100
     41 H14        -9.0054  -15.0924    7.4125 H           1 NP6       0.0708
     42 H15       -10.8535  -15.6560    8.7218 H           1 NP6       0.0588
     43 H16       -10.6333  -13.9348    9.0134 H           1 NP6       0.0588
     44 H17       -10.3537  -14.3430   11.0180 H           1 NP6       0.2095
     45 H18        -6.2980  -11.2545    8.7059 H           1 NP6       0.2276
     46 H19        -5.3375   -8.7058    8.7371 H           1 NP6       0.0501
     47 H20        -5.5260   -6.8026   10.2223 H           1 NP6       0.0577
     48 H21        -7.4460   -6.5889   11.6955 H           1 NP6       0.0487
     49 H22        -9.2082   -8.2574   11.6369 H           1 NP6       0.0577
     50 H23        -9.0611  -10.1399   10.1238 H           1 NP6       0.0501
@<TRIPOS>BOND
     1     1     2   1
     2     2     3   1
     3     3     4   1
     4     4     5   2
     5     4     6  am
     6     6     7   1
     7     7     8   1
     8     7    16   1
     9     8     9   1
    10     8    10   1
    11    10    11   1
    12    10    12   1
    13    12    13   1
    14    12    15   1
    15    13    14   1
    16    15    16   1
    17    16    17   2
    18    17    18   1
    19    18    19   1
    20    19    20   2
    21    19    21  am
    22    21    22   1
    23    22    23  ar
    24    22    27  ar
    25    23    24  ar
    26    24    25  ar
    27    25    26  ar
    28    26    27  ar
    29     1    28   1
    30     1    29   1
    31     1    30   1
    32     2    31   1
    33     2    32   1
    34     3    33   1
    35     3    34   1
    36     6    35   1
    37     7    36   1
    38     8    37   1
    39     9    38   1
    40    10    39   1
    41    11    40   1
    42    12    41   1
    43    13    42   1
    44    13    43   1
    45    14    44   1
    46    21    45   1
    47    23    46   1
    48    24    47   1
    49    25    48   1
    50    26    49   1
    51    27    50   1
@<TRIPOS>SUBSTRUCTURE
     1  NP6      1

