@<TRIPOS>MOLECULE
2wca_ligand_079
    50    51
SMALL
GAST_HUCK
****
This file was generated by PARSER (from files_GN.cpp)

@<TRIPOS>ATOM
      1 C2        -14.8358  -15.5634   10.4243 C.3         1 NP6      -0.0632
      2 C1        -14.4961  -17.0327   10.8055 C.3         1 NP6      -0.0389
      3 C3        -13.0174  -17.3094   11.2063 C.3         1 NP6       0.0372
      4 C4        -12.0207  -17.0192   10.1792 C.2         1 NP6       0.1785
      5 O1        -12.0556  -15.9233    9.6250 O.2         1 NP6      -0.3969
      6 N1        -11.0163  -17.8707    9.9634 N.am        1 NP6      -0.2639
      7 C5         -9.9101  -17.6988    9.0462 C.3         1 NP6       0.1483
      8 C6         -9.0571  -19.0141    8.9837 C.3         1 NP6       0.1223
      9 O2         -9.7808  -20.0470    8.3063 O.3         1 NP6      -0.3842
     10 C7         -7.7010  -18.8525    8.2235 C.3         1 NP6       0.1187
     11 O3         -6.8490  -19.9661    8.5091 O.3         1 NP6      -0.3859
     12 C8         -7.0046  -17.5256    8.6487 C.3         1 NP6       0.1375
     13 C9         -5.7744  -17.1998    7.7638 C.3         1 NP6       0.0780
     14 O4         -5.0866  -16.0588    8.2595 O.3         1 NP6      -0.3919
     15 O5         -7.9293  -16.4163    8.5579 O.3         1 NP6      -0.2871
     16 C10        -9.0182  -16.5709    9.3278 C.2         1 NP6       0.1893
     17 N2         -9.2046  -15.7568   10.3084 N.2         1 NP6      -0.1541
     18 O6         -8.5974  -14.6623   10.5974 O.3         1 NP6      -0.1506
     19 C11        -8.0588  -13.6119    9.8963 C.2         1 NP6       0.3788
     20 O7         -7.2934  -12.7667   10.6177 O.2         1 NP6      -0.3643
     21 N3         -8.2061  -13.2744    8.5882 N.am        1 NP6      -0.2057
     22 C12        -9.1201  -13.7185    7.6811 C.ar        1 NP6       0.0683
     23 C13        -8.7582  -13.7042    6.3106 C.ar        1 NP6      -0.0414
     24 C14        -9.6590  -14.1657    5.3331 C.ar        1 NP6      -0.0756
     25 C15       -10.9235  -14.6556    5.7159 C.ar        1 NP6      -0.0773
     26 C16       -11.3147  -14.6120    7.0644 C.ar        1 NP6      -0.0756
     27 C17       -10.4268  -14.1236    8.0450 C.ar        1 NP6      -0.0414
     28 H1        -15.9215  -15.4444   10.3413 H           1 NP6       0.0231
     29 H2        -14.3995  -15.2915    9.4587 H           1 NP6       0.0231
     30 H3        -14.4629  -14.8767   11.1929 H           1 NP6       0.0231
     31 H4        -14.7892  -17.6741    9.9693 H           1 NP6       0.0287
     32 H5        -15.1243  -17.3105   11.6591 H           1 NP6       0.0287
     33 H6        -12.9508  -18.3669   11.5123 H           1 NP6       0.0502
     34 H7        -12.7795  -16.7128   12.0939 H           1 NP6       0.0502
     35 H8        -11.0281  -18.7157   10.4514 H           1 NP6       0.1888
     36 H9        -10.3232  -17.5257    8.0463 H           1 NP6       0.0821
     37 H10        -8.8552  -19.3530   10.0066 H           1 NP6       0.0672
     38 H11       -10.7144  -19.7733    8.2878 H           1 NP6       0.2103
     39 H12        -7.8877  -18.8276    7.1455 H           1 NP6       0.0653
     40 H13        -7.2743  -20.7361    8.0753 H           1 NP6       0.2100
     41 H14        -6.6671  -17.6265    9.6888 H           1 NP6       0.0708
     42 H15        -6.0821  -16.9993    6.7332 H           1 NP6       0.0588
     43 H16        -5.0753  -18.0434    7.7589 H           1 NP6       0.0588
     44 H17        -5.7118  -15.3138    8.1431 H           1 NP6       0.2095
     45 H18        -7.6044  -12.5823    8.2647 H           1 NP6       0.2276
     46 H19        -7.8317  -13.3763    6.0168 H           1 NP6       0.0501
     47 H20        -9.3903  -14.1677    4.3481 H           1 NP6       0.0577
     48 H21       -11.5571  -15.0334    5.0048 H           1 NP6       0.0487
     49 H22       -12.2420  -14.9439    7.3332 H           1 NP6       0.0577
     50 H23       -10.7361  -14.0744    9.0194 H           1 NP6       0.0501
@<TRIPOS>BOND
     1     1     2   1
     2     2     3   1
     3     3     4   1
     4     4     5   2
     5     4     6  am
     6     6     7   1
     7     7     8   1
     8     7    16   1
     9     8     9   1
    10     8    10   1
    11    10    11   1
    12    10    12   1
    13    12    13   1
    14    12    15   1
    15    13    14   1
    16    15    16   1
    17    16    17   2
    18    17    18   1
    19    18    19   1
    20    19    20   2
    21    19    21  am
    22    21    22   1
    23    22    23  ar
    24    22    27  ar
    25    23    24  ar
    26    24    25  ar
    27    25    26  ar
    28    26    27  ar
    29     1    28   1
    30     1    29   1
    31     1    30   1
    32     2    31   1
    33     2    32   1
    34     3    33   1
    35     3    34   1
    36     6    35   1
    37     7    36   1
    38     8    37   1
    39     9    38   1
    40    10    39   1
    41    11    40   1
    42    12    41   1
    43    13    42   1
    44    13    43   1
    45    14    44   1
    46    21    45   1
    47    23    46   1
    48    24    47   1
    49    25    48   1
    50    26    49   1
    51    27    50   1
@<TRIPOS>SUBSTRUCTURE
     1  NP6      1

