@<TRIPOS>MOLECULE
2weg_ligand_025
    17    17
SMALL
GAST_HUCK
****
This file was generated by PARSER (from files_GN.cpp)

@<TRIPOS>ATOM
      1 C1         15.9039    3.7416   13.5774 C.ar        1 FBV      -0.0635
      2 C2         16.6729    2.6212   13.2183 C.ar        1 FBV      -0.0640
      3 C3         17.7544    2.7664   12.3291 C.ar        1 FBV      -0.0369
      4 C4         18.0744    4.0305   11.7828 C.ar        1 FBV       0.1411
      5 C5         17.2967    5.1549   12.1539 C.ar        1 FBV       0.1588
      6 C6         16.2156    5.0052   13.0459 C.ar        1 FBV      -0.0262
      7 S          19.4425    4.1540   10.7021 S.o2        1 FBV       0.0666
      8 N2         19.4542    2.9130    9.5694 N.am        1 FBV      -0.2614
      9 O1         19.5109    5.5426    9.9271 O.2         1 FBV      -0.1511
     10 O2         20.7467    3.9690   11.5941 O.2         1 FBV      -0.1511
     11 F          17.5520    6.3531   11.7009 F           1 FBV      -0.1813
     12 H1         15.1220    3.6398   14.2284 H           1 FBV       0.0607
     13 H2         16.4491    1.7018   13.6073 H           1 FBV       0.0583
     14 H3         18.3093    1.9410   12.0897 H           1 FBV       0.0627
     15 H4         15.6515    5.8162   13.3124 H           1 FBV       0.0604
     16 H5         20.2489    2.7711    9.0329 H           1 FBV       0.1634
     17 H6         18.7790    2.2180    9.6129 H           1 FBV       0.1634
@<TRIPOS>BOND
     1     1     2  ar
     2     1     6  ar
     3     2     3  ar
     4     3     4  ar
     5     4     5  ar
     6     4     7   1
     7     5     6  ar
     8     5    11   1
     9     7     8  am
    10     7     9   2
    11     7    10   2
    12     1    12   1
    13     2    13   1
    14     3    14   1
    15     6    15   1
    16     8    16   1
    17     8    17   1
@<TRIPOS>SUBSTRUCTURE
     1  FBV      1

