@<TRIPOS>MOLECULE
2weg_ligand_015
    17    17
SMALL
GAST_HUCK
****
This file was generated by PARSER (from files_GN.cpp)

@<TRIPOS>ATOM
      1 C1         16.0133    7.9596   12.1708 C.ar        1 FBV      -0.0635
      2 C2         16.3261    6.7588   11.5127 C.ar        1 FBV      -0.0640
      3 C3         16.2313    6.6781   10.1105 C.ar        1 FBV      -0.0369
      4 C4         15.8199    7.7950    9.3503 C.ar        1 FBV       0.1411
      5 C5         15.4866    8.9966   10.0247 C.ar        1 FBV       0.1588
      6 C6         15.5872    9.0735   11.4276 C.ar        1 FBV      -0.0262
      7 S          15.7224    7.6673    7.6056 S.o2        1 FBV       0.0666
      8 N2         14.1207    7.5835    7.1172 N.am        1 FBV      -0.2614
      9 O1         16.3629    8.9832    6.9802 O.2         1 FBV      -0.1511
     10 O2         16.4902    6.3743    7.0855 O.2         1 FBV      -0.1511
     11 F          15.0732   10.0573    9.3767 F           1 FBV      -0.1813
     12 H1         16.0845    8.0200   13.1879 H           1 FBV       0.0607
     13 H2         16.6217    5.9416   12.0523 H           1 FBV       0.0583
     14 H3         16.4634    5.7920    9.6539 H           1 FBV       0.0627
     15 H4         15.3454    9.9428   11.9150 H           1 FBV       0.0604
     16 H5         13.8954    7.7036    6.1816 H           1 FBV       0.1634
     17 H6         13.4270    7.4037    7.7737 H           1 FBV       0.1634
@<TRIPOS>BOND
     1     1     2  ar
     2     1     6  ar
     3     2     3  ar
     4     3     4  ar
     5     4     5  ar
     6     4     7   1
     7     5     6  ar
     8     5    11   1
     9     7     8  am
    10     7     9   2
    11     7    10   2
    12     1    12   1
    13     2    13   1
    14     3    14   1
    15     6    15   1
    16     8    16   1
    17     8    17   1
@<TRIPOS>SUBSTRUCTURE
     1  FBV      1

