@<TRIPOS>MOLECULE
2weg_ligand_023
    17    17
SMALL
GAST_HUCK
****
This file was generated by PARSER (from files_GN.cpp)

@<TRIPOS>ATOM
      1 C1         19.8565    4.5978    9.8921 C.ar        1 FBV      -0.0635
      2 C2         19.9885    3.3414   10.5071 C.ar        1 FBV      -0.0640
      3 C3         18.8656    2.7070   11.0617 C.ar        1 FBV      -0.0369
      4 C4         17.5955    3.3237   11.0184 C.ar        1 FBV       0.1411
      5 C5         17.4645    4.5836   10.3819 C.ar        1 FBV       0.1588
      6 C6         18.5966    5.2166    9.8268 C.ar        1 FBV      -0.0262
      7 S          16.2308    2.4982   11.7296 S.o2        1 FBV       0.0666
      8 N2         16.6874    1.5236   13.0250 N.am        1 FBV      -0.2614
      9 O1         15.1848    3.5712   12.2604 O.2         1 FBV      -0.1511
     10 O2         15.5576    1.5963   10.6075 O.2         1 FBV      -0.1511
     11 F          16.3107    5.1886   10.2733 F           1 FBV      -0.1813
     12 H1         20.6752    5.0581    9.4879 H           1 FBV       0.0607
     13 H2         20.9052    2.8881   10.5524 H           1 FBV       0.0583
     14 H3         18.9840    1.7900   11.4960 H           1 FBV       0.0627
     15 H4         18.5056    6.1290    9.3700 H           1 FBV       0.0604
     16 H5         16.0085    1.1346   13.6006 H           1 FBV       0.1634
     17 H6         17.6205    1.4738   13.2869 H           1 FBV       0.1634
@<TRIPOS>BOND
     1     1     2  ar
     2     1     6  ar
     3     2     3  ar
     4     3     4  ar
     5     4     5  ar
     6     4     7   1
     7     5     6  ar
     8     5    11   1
     9     7     8  am
    10     7     9   2
    11     7    10   2
    12     1    12   1
    13     2    13   1
    14     3    14   1
    15     6    15   1
    16     8    16   1
    17     8    17   1
@<TRIPOS>SUBSTRUCTURE
     1  FBV      1

