@<TRIPOS>MOLECULE
2weg_ligand_017
    17    17
SMALL
GAST_HUCK
****
This file was generated by PARSER (from files_GN.cpp)

@<TRIPOS>ATOM
      1 C1         17.7365    4.9083   10.1935 C.ar        1 FBV      -0.0635
      2 C2         19.0122    4.3203   10.1150 C.ar        1 FBV      -0.0640
      3 C3         19.1970    2.9807   10.5032 C.ar        1 FBV      -0.0369
      4 C4         18.1088    2.2182   10.9832 C.ar        1 FBV       0.1411
      5 C5         16.8243    2.8114   11.0476 C.ar        1 FBV       0.1588
      6 C6         16.6445    4.1524   10.6562 C.ar        1 FBV      -0.0262
      7 S          18.3514    0.5526   11.4504 S.o2        1 FBV       0.0666
      8 N2         19.9556    0.1065   11.6853 N.am        1 FBV      -0.2614
      9 O1         17.5745    0.2907   12.8138 O.2         1 FBV      -0.1511
     10 O2         17.7321   -0.3740   10.3156 O.2         1 FBV      -0.1511
     11 F          15.7777    2.1425   11.4582 F           1 FBV      -0.1813
     12 H1         17.6039    5.8807    9.9057 H           1 FBV       0.0607
     13 H2         19.8052    4.8661    9.7700 H           1 FBV       0.0583
     14 H3         20.1333    2.5740   10.4311 H           1 FBV       0.0627
     15 H4         15.7191    4.5817   10.7008 H           1 FBV       0.0604
     16 H5         20.1567   -0.7218   12.1504 H           1 FBV       0.1634
     17 H6         20.6586    0.7563   11.5402 H           1 FBV       0.1634
@<TRIPOS>BOND
     1     1     2  ar
     2     1     6  ar
     3     2     3  ar
     4     3     4  ar
     5     4     5  ar
     6     4     7   1
     7     5     6  ar
     8     5    11   1
     9     7     8  am
    10     7     9   2
    11     7    10   2
    12     1    12   1
    13     2    13   1
    14     3    14   1
    15     6    15   1
    16     8    16   1
    17     8    17   1
@<TRIPOS>SUBSTRUCTURE
     1  FBV      1

