@<TRIPOS>MOLECULE
2weg_ligand_011
    17    17
SMALL
GAST_HUCK
****
This file was generated by PARSER (from files_GN.cpp)

@<TRIPOS>ATOM
      1 C1         17.1680    0.7459   11.6682 C.ar        1 FBV      -0.0635
      2 C2         16.3853    1.8874   11.4286 C.ar        1 FBV      -0.0640
      3 C3         16.9952    3.0840   11.0155 C.ar        1 FBV      -0.0369
      4 C4         18.3945    3.1553   10.8292 C.ar        1 FBV       0.1411
      5 C5         19.1794    2.0009   11.0786 C.ar        1 FBV       0.1588
      6 C6         18.5630    0.8023   11.4938 C.ar        1 FBV      -0.0262
      7 S          19.1185    4.6401   10.2587 S.o2        1 FBV       0.0666
      8 N2         20.2071    4.3474    9.0114 N.am        1 FBV      -0.2614
      9 O1         18.0050    5.6114    9.6683 O.2         1 FBV      -0.1511
     10 O2         19.8675    5.3561   11.4651 O.2         1 FBV      -0.1511
     11 F          20.4790    2.0051   10.9268 F           1 FBV      -0.1813
     12 H1         16.7217   -0.1223   11.9728 H           1 FBV       0.0607
     13 H2         15.3714    1.8516   11.5539 H           1 FBV       0.0583
     14 H3         16.3994    3.8947   10.8401 H           1 FBV       0.0627
     15 H4         19.1272   -0.0329   11.6727 H           1 FBV       0.0604
     16 H5         20.6163    5.0940    8.5501 H           1 FBV       0.1634
     17 H6         20.5182    3.4472    8.8301 H           1 FBV       0.1634
@<TRIPOS>BOND
     1     1     2  ar
     2     1     6  ar
     3     2     3  ar
     4     3     4  ar
     5     4     5  ar
     6     4     7   1
     7     5     6  ar
     8     5    11   1
     9     7     8  am
    10     7     9   2
    11     7    10   2
    12     1    12   1
    13     2    13   1
    14     3    14   1
    15     6    15   1
    16     8    16   1
    17     8    17   1
@<TRIPOS>SUBSTRUCTURE
     1  FBV      1

