@<TRIPOS>MOLECULE
2weg_ligand_019
    17    17
SMALL
GAST_HUCK
****
This file was generated by PARSER (from files_GN.cpp)

@<TRIPOS>ATOM
      1 C1         16.0266    2.3448   12.0843 C.ar        1 FBV      -0.0635
      2 C2         16.5956    1.7364   13.2175 C.ar        1 FBV      -0.0640
      3 C3         17.3305    2.5083   14.1346 C.ar        1 FBV      -0.0369
      4 C4         17.5062    3.8969   13.9333 C.ar        1 FBV       0.1411
      5 C5         16.9187    4.5040   12.8009 C.ar        1 FBV       0.1588
      6 C6         16.1901    3.7265   11.8770 C.ar        1 FBV      -0.0262
      7 S          18.4205    4.8379   15.0889 S.o2        1 FBV       0.0666
      8 N2         19.7224    5.6237   14.3747 N.am        1 FBV      -0.2614
      9 O1         17.4515    5.9596   15.6684 O.2         1 FBV      -0.1511
     10 O2         18.9262    3.9364   16.2971 O.2         1 FBV      -0.1511
     11 F          17.0384    5.7871   12.5828 F           1 FBV      -0.1813
     12 H1         15.4858    1.7858   11.4174 H           1 FBV       0.0607
     13 H2         16.4651    0.7338   13.3818 H           1 FBV       0.0583
     14 H3         17.7306    2.0433   14.9544 H           1 FBV       0.0627
     15 H4         15.7650    4.1644   11.0572 H           1 FBV       0.0604
     16 H5         20.2377    6.2612   14.9010 H           1 FBV       0.1634
     17 H6         20.0834    5.3082   13.5307 H           1 FBV       0.1634
@<TRIPOS>BOND
     1     1     2  ar
     2     1     6  ar
     3     2     3  ar
     4     3     4  ar
     5     4     5  ar
     6     4     7   1
     7     5     6  ar
     8     5    11   1
     9     7     8  am
    10     7     9   2
    11     7    10   2
    12     1    12   1
    13     2    13   1
    14     3    14   1
    15     6    15   1
    16     8    16   1
    17     8    17   1
@<TRIPOS>SUBSTRUCTURE
     1  FBV      1

