@<TRIPOS>MOLECULE
2weg_ligand_014
    17    17
SMALL
GAST_HUCK
****
This file was generated by PARSER (from files_GN.cpp)

@<TRIPOS>ATOM
      1 C1         15.8416    8.1187   12.2810 C.ar        1 FBV      -0.0635
      2 C2         15.3371    9.1605   11.4823 C.ar        1 FBV      -0.0640
      3 C3         15.2971    9.0137   10.0825 C.ar        1 FBV      -0.0369
      4 C4         15.7620    7.8303    9.4717 C.ar        1 FBV       0.1411
      5 C5         16.2713    6.7847   10.2807 C.ar        1 FBV       0.1588
      6 C6         16.3113    6.9368   11.6831 C.ar        1 FBV      -0.0262
      7 S          15.7095    7.7505    7.7299 S.o2        1 FBV       0.0666
      8 N2         14.1076    7.7207    7.2170 N.am        1 FBV      -0.2614
      9 O1         16.3459    9.1046    7.1944 O.2         1 FBV      -0.1511
     10 O2         16.4980    6.4917    7.1511 O.2         1 FBV      -0.1511
     11 F          16.7071    5.6622    9.7724 F           1 FBV      -0.1813
     12 H1         15.8790    8.2300   13.2992 H           1 FBV       0.0607
     13 H2         14.9943   10.0186   11.9132 H           1 FBV       0.0583
     14 H3         14.9259    9.7787    9.5214 H           1 FBV       0.0627
     15 H4         16.6780    6.1838   12.2749 H           1 FBV       0.0604
     16 H5         13.8878    7.8763    6.2807 H           1 FBV       0.1634
     17 H6         13.3961    7.5080    7.8464 H           1 FBV       0.1634
@<TRIPOS>BOND
     1     1     2  ar
     2     1     6  ar
     3     2     3  ar
     4     3     4  ar
     5     4     5  ar
     6     4     7   1
     7     5     6  ar
     8     5    11   1
     9     7     8  am
    10     7     9   2
    11     7    10   2
    12     1    12   1
    13     2    13   1
    14     3    14   1
    15     6    15   1
    16     8    16   1
    17     8    17   1
@<TRIPOS>SUBSTRUCTURE
     1  FBV      1

