@<TRIPOS>MOLECULE
2weg_ligand_016
    17    17
SMALL
GAST_HUCK
****
This file was generated by PARSER (from files_GN.cpp)

@<TRIPOS>ATOM
      1 C1         17.5629    4.9968   11.3401 C.ar        1 FBV      -0.0635
      2 C2         16.6289    3.9563   11.4537 C.ar        1 FBV      -0.0640
      3 C3         16.4635    3.2916   12.6842 C.ar        1 FBV      -0.0369
      4 C4         17.2354    3.6525   13.8097 C.ar        1 FBV       0.1411
      5 C5         18.1670    4.7148   13.6904 C.ar        1 FBV       0.1588
      6 C6         18.3322    5.3748   12.4526 C.ar        1 FBV      -0.0262
      7 S          16.9976    2.8002   15.3181 S.o2        1 FBV       0.0666
      8 N2         16.9136    1.1391   15.0751 N.am        1 FBV      -0.2614
      9 O1         18.2132    3.0432   16.3165 O.2         1 FBV      -0.1511
     10 O2         15.6452    3.2728   16.0062 O.2         1 FBV      -0.1511
     11 F          18.8995    5.1054   14.6985 F           1 FBV      -0.1813
     12 H1         17.6843    5.4885   10.4495 H           1 FBV       0.0607
     13 H2         16.0717    3.6841   10.6394 H           1 FBV       0.0583
     14 H3         15.7779    2.5313   12.7403 H           1 FBV       0.0627
     15 H4         19.0124    6.1341   12.3654 H           1 FBV       0.0604
     16 H5         16.9423    0.5401   15.8362 H           1 FBV       0.1634
     17 H6         16.8635    0.7806   14.1809 H           1 FBV       0.1634
@<TRIPOS>BOND
     1     1     2  ar
     2     1     6  ar
     3     2     3  ar
     4     3     4  ar
     5     4     5  ar
     6     4     7   1
     7     5     6  ar
     8     5    11   1
     9     7     8  am
    10     7     9   2
    11     7    10   2
    12     1    12   1
    13     2    13   1
    14     3    14   1
    15     6    15   1
    16     8    16   1
    17     8    17   1
@<TRIPOS>SUBSTRUCTURE
     1  FBV      1

