@<TRIPOS>MOLECULE
2weg_ligand_009
    17    17
SMALL
GAST_HUCK
****
This file was generated by PARSER (from files_GN.cpp)

@<TRIPOS>ATOM
      1 C1         17.4253    0.5277   11.5098 C.ar        1 FBV      -0.0635
      2 C2         18.8142    0.7026   11.3828 C.ar        1 FBV      -0.0640
      3 C3         19.3357    1.9602   11.0255 C.ar        1 FBV      -0.0369
      4 C4         18.4751    3.0569   10.7863 C.ar        1 FBV       0.1411
      5 C5         17.0783    2.8761   10.9347 C.ar        1 FBV       0.1588
      6 C6         16.5596    1.6139   11.2881 C.ar        1 FBV      -0.0262
      7 S          19.1696    4.5948   10.3274 S.o2        1 FBV       0.0666
      8 N2         20.2978    4.4343    9.0923 N.am        1 FBV      -0.2614
      9 O1         18.0644    5.6051    9.7934 O.2         1 FBV      -0.1511
     10 O2         19.8990    5.2248   11.5928 O.2         1 FBV      -0.1511
     11 F          16.2354    3.8565   10.7467 F           1 FBV      -0.1813
     12 H1         17.0462   -0.3872   11.7644 H           1 FBV       0.0607
     13 H2         19.4459   -0.0864   11.5430 H           1 FBV       0.0583
     14 H3         20.3490    2.0656   10.9377 H           1 FBV       0.0627
     15 H4         15.5500    1.4758   11.3807 H           1 FBV       0.0604
     16 H5         20.6608    5.2271    8.6657 H           1 FBV       0.1634
     17 H6         20.5946    3.5558    8.8100 H           1 FBV       0.1634
@<TRIPOS>BOND
     1     1     2  ar
     2     1     6  ar
     3     2     3  ar
     4     3     4  ar
     5     4     5  ar
     6     4     7   1
     7     5     6  ar
     8     5    11   1
     9     7     8  am
    10     7     9   2
    11     7    10   2
    12     1    12   1
    13     2    13   1
    14     3    14   1
    15     6    15   1
    16     8    16   1
    17     8    17   1
@<TRIPOS>SUBSTRUCTURE
     1  FBV      1

