@<TRIPOS>MOLECULE
2weg_ligand_004
    17    17
SMALL
GAST_HUCK
****
This file was generated by PARSER (from files_GN.cpp)

@<TRIPOS>ATOM
      1 C1         18.9207   -2.0540   11.2585 C.ar        1 FBV      -0.0635
      2 C2         19.6469   -0.8558   11.3691 C.ar        1 FBV      -0.0640
      3 C3         18.9708    0.3665   11.5273 C.ar        1 FBV      -0.0369
      4 C4         17.5596    0.4096   11.5547 C.ar        1 FBV       0.1411
      5 C5         16.8354   -0.8044   11.4537 C.ar        1 FBV       0.1588
      6 C6         17.5168   -2.0295   11.3034 C.ar        1 FBV      -0.0262
      7 S          16.7628    1.9541   11.7385 S.o2        1 FBV       0.0666
      8 N2         17.7350    3.2555   11.2987 N.am        1 FBV      -0.2614
      9 O1         15.4813    1.9959   10.7979 O.2         1 FBV      -0.1511
     10 O2         16.3227    2.1117   13.2582 O.2         1 FBV      -0.1511
     11 F          15.5311   -0.8334   11.5090 F           1 FBV      -0.1813
     12 H1         19.4128   -2.9431   11.1524 H           1 FBV       0.0607
     13 H2         20.6699   -0.8709   11.3408 H           1 FBV       0.0583
     14 H3         19.5214    1.2214   11.6287 H           1 FBV       0.0627
     15 H4         16.9946   -2.9074   11.2320 H           1 FBV       0.0604
     16 H5         17.3339    4.1302   11.1707 H           1 FBV       0.1634
     17 H6         18.6347    3.0974   10.9729 H           1 FBV       0.1634
@<TRIPOS>BOND
     1     1     2  ar
     2     1     6  ar
     3     2     3  ar
     4     3     4  ar
     5     4     5  ar
     6     4     7   1
     7     5     6  ar
     8     5    11   1
     9     7     8  am
    10     7     9   2
    11     7    10   2
    12     1    12   1
    13     2    13   1
    14     3    14   1
    15     6    15   1
    16     8    16   1
    17     8    17   1
@<TRIPOS>SUBSTRUCTURE
     1  FBV      1

