@<TRIPOS>MOLECULE
2weg_ligand_003
    17    17
SMALL
GAST_HUCK
****
This file was generated by PARSER (from files_GN.cpp)

@<TRIPOS>ATOM
      1 C1         16.4781    7.0818   12.0246 C.ar        1 FBV      -0.0635
      2 C2         16.2163    6.4462   10.8003 C.ar        1 FBV      -0.0640
      3 C3         17.0291    5.3816   10.3734 C.ar        1 FBV      -0.0369
      4 C4         18.1203    4.9420   11.1568 C.ar        1 FBV       0.1411
      5 C5         18.3789    5.5908   12.3892 C.ar        1 FBV       0.1588
      6 C6         17.5572    6.6554   12.8182 C.ar        1 FBV      -0.0262
      7 S          19.0853    3.6154   10.5482 S.o2        1 FBV       0.0666
      8 N2         19.8540    4.0162    9.1081 N.am        1 FBV      -0.2614
      9 O1         20.1910    3.1323   11.5829 O.2         1 FBV      -0.1511
     10 O2         18.1150    2.3944   10.2376 O.2         1 FBV      -0.1511
     11 F          19.3717    5.2399   13.1617 F           1 FBV      -0.1813
     12 H1         15.8876    7.8574   12.3353 H           1 FBV       0.0607
     13 H2         15.4363    6.7585   10.2173 H           1 FBV       0.0583
     14 H3         16.8148    4.9307    9.4827 H           1 FBV       0.0627
     15 H4         17.7437    7.1262   13.7067 H           1 FBV       0.0604
     16 H5         20.5265    3.4227    8.7381 H           1 FBV       0.1634
     17 H6         19.6340    4.8432    8.6512 H           1 FBV       0.1634
@<TRIPOS>BOND
     1     1     2  ar
     2     1     6  ar
     3     2     3  ar
     4     3     4  ar
     5     4     5  ar
     6     4     7   1
     7     5     6  ar
     8     5    11   1
     9     7     8  am
    10     7     9   2
    11     7    10   2
    12     1    12   1
    13     2    13   1
    14     3    14   1
    15     6    15   1
    16     8    16   1
    17     8    17   1
@<TRIPOS>SUBSTRUCTURE
     1  FBV      1

