@<TRIPOS>MOLECULE
2weg_ligand_021
    17    17
SMALL
GAST_HUCK
****
This file was generated by PARSER (from files_GN.cpp)

@<TRIPOS>ATOM
      1 C1         23.3933    6.7109   10.2517 C.ar        1 FBV      -0.0635
      2 C2         23.1231    5.9080   11.3742 C.ar        1 FBV      -0.0640
      3 C3         21.9460    5.1378   11.4248 C.ar        1 FBV      -0.0369
      4 C4         21.0208    5.1675   10.3565 C.ar        1 FBV       0.1411
      5 C5         21.3069    5.9710    9.2258 C.ar        1 FBV       0.1588
      6 C6         22.4871    6.7388    9.1774 C.ar        1 FBV      -0.0262
      7 S          19.5471    4.2280   10.4476 S.o2        1 FBV       0.0666
      8 N2         19.5649    2.9580    9.3499 N.am        1 FBV      -0.2614
      9 O1         19.3850    3.5773   11.8892 O.2         1 FBV      -0.1511
     10 O2         18.2926    5.1476   10.1171 O.2         1 FBV      -0.1511
     11 F          20.4944    6.0261    8.2035 F           1 FBV      -0.1813
     12 H1         24.2468    7.2740   10.2168 H           1 FBV       0.0607
     13 H2         23.7834    5.8890   12.1551 H           1 FBV       0.0583
     14 H3         21.7714    4.5585   12.2480 H           1 FBV       0.0627
     15 H4         22.6895    7.3239    8.3633 H           1 FBV       0.0604
     16 H5         18.9623    2.2091    9.4828 H           1 FBV       0.1634
     17 H6         20.3249    2.8539    8.7614 H           1 FBV       0.1634
@<TRIPOS>BOND
     1     1     2  ar
     2     1     6  ar
     3     2     3  ar
     4     3     4  ar
     5     4     5  ar
     6     4     7   1
     7     5     6  ar
     8     5    11   1
     9     7     8  am
    10     7     9   2
    11     7    10   2
    12     1    12   1
    13     2    13   1
    14     3    14   1
    15     6    15   1
    16     8    16   1
    17     8    17   1
@<TRIPOS>SUBSTRUCTURE
     1  FBV      1

