@<TRIPOS>MOLECULE
2weg_ligand_020
    17    17
SMALL
GAST_HUCK
****
This file was generated by PARSER (from files_GN.cpp)

@<TRIPOS>ATOM
      1 C1         18.8986    5.3896   12.4820 C.ar        1 FBV      -0.0635
      2 C2         19.1190    5.5010   13.8662 C.ar        1 FBV      -0.0640
      3 C3         18.4367    4.6555   14.7610 C.ar        1 FBV      -0.0369
      4 C4         17.5330    3.6821   14.2785 C.ar        1 FBV       0.1411
      5 C5         17.3097    3.5816   12.8830 C.ar        1 FBV       0.1588
      6 C6         17.9942    4.4316   11.9911 C.ar        1 FBV      -0.0262
      7 S          16.6952    2.6214   15.3865 S.o2        1 FBV       0.0666
      8 N2         16.9647    1.0040   15.0186 N.am        1 FBV      -0.2614
      9 O1         17.1599    2.8415   16.8899 O.2         1 FBV      -0.1511
     10 O2         15.1322    2.8882   15.2872 O.2         1 FBV      -0.1511
     11 F          16.4711    2.7101   12.3859 F           1 FBV      -0.1813
     12 H1         19.3944    6.0049   11.8326 H           1 FBV       0.0607
     13 H2         19.7788    6.1975   14.2216 H           1 FBV       0.0583
     14 H3         18.6081    4.7566   15.7633 H           1 FBV       0.0627
     15 H4         17.8380    4.3541   10.9825 H           1 FBV       0.0604
     16 H5         16.8896    0.3474   15.7266 H           1 FBV       0.1634
     17 H6         17.4521    0.7759   14.2123 H           1 FBV       0.1634
@<TRIPOS>BOND
     1     1     2  ar
     2     1     6  ar
     3     2     3  ar
     4     3     4  ar
     5     4     5  ar
     6     4     7   1
     7     5     6  ar
     8     5    11   1
     9     7     8  am
    10     7     9   2
    11     7    10   2
    12     1    12   1
    13     2    13   1
    14     3    14   1
    15     6    15   1
    16     8    16   1
    17     8    17   1
@<TRIPOS>SUBSTRUCTURE
     1  FBV      1

