@<TRIPOS>MOLECULE
2weg_ligand_005
    17    17
SMALL
GAST_HUCK
****
This file was generated by PARSER (from files_GN.cpp)

@<TRIPOS>ATOM
      1 C1         16.1099    6.0593   12.7020 C.ar        1 FBV      -0.0635
      2 C2         16.7679    5.0414   13.4146 C.ar        1 FBV      -0.0640
      3 C3         17.6782    4.1947   12.7503 C.ar        1 FBV      -0.0369
      4 C4         17.9399    4.3602   11.3707 C.ar        1 FBV       0.1411
      5 C5         17.2698    5.3903   10.6646 C.ar        1 FBV       0.1588
      6 C6         16.3622    6.2332   11.3322 C.ar        1 FBV      -0.0262
      7 S          19.0445    3.2695   10.5682 S.o2        1 FBV       0.0666
      8 N2         19.8495    3.9332    9.2477 N.am        1 FBV      -0.2614
      9 O1         20.1371    2.8329   11.6328 O.2         1 FBV      -0.1511
     10 O2         18.2358    1.9775   10.1069 O.2         1 FBV      -0.1511
     11 F          17.4286    5.5872    9.3848 F           1 FBV      -0.1813
     12 H1         15.4482    6.6775   13.1805 H           1 FBV       0.0607
     13 H2         16.5775    4.9128   14.4107 H           1 FBV       0.0583
     14 H3         18.1298    3.4472   13.2864 H           1 FBV       0.0627
     15 H4         15.8755    6.9726   10.8192 H           1 FBV       0.0604
     16 H5         20.5911    3.4580    8.8422 H           1 FBV       0.1634
     17 H6         19.5985    4.8063    8.9111 H           1 FBV       0.1634
@<TRIPOS>BOND
     1     1     2  ar
     2     1     6  ar
     3     2     3  ar
     4     3     4  ar
     5     4     5  ar
     6     4     7   1
     7     5     6  ar
     8     5    11   1
     9     7     8  am
    10     7     9   2
    11     7    10   2
    12     1    12   1
    13     2    13   1
    14     3    14   1
    15     6    15   1
    16     8    16   1
    17     8    17   1
@<TRIPOS>SUBSTRUCTURE
     1  FBV      1

