@<TRIPOS>MOLECULE
2weg_ligand_013
    17    17
SMALL
GAST_HUCK
****
This file was generated by PARSER (from files_GN.cpp)

@<TRIPOS>ATOM
      1 C1         16.0396    6.8867   13.7687 C.ar        1 FBV      -0.0635
      2 C2         16.3426    6.4574   15.0721 C.ar        1 FBV      -0.0640
      3 C3         16.6188    5.1008   15.3214 C.ar        1 FBV      -0.0369
      4 C4         16.5942    4.1564   14.2679 C.ar        1 FBV       0.1411
      5 C5         16.3077    4.6022   12.9546 C.ar        1 FBV       0.1588
      6 C6         16.0264    5.9601   12.7115 C.ar        1 FBV      -0.0262
      7 S          16.9442    2.4777   14.6001 S.o2        1 FBV       0.0666
      8 N2         17.9329    2.2937   15.9469 N.am        1 FBV      -0.2614
      9 O1         15.5480    1.7808   14.9052 O.2         1 FBV      -0.1511
     10 O2         17.6468    1.7915   13.3470 O.2         1 FBV      -0.1511
     11 F          16.2967    3.7863   11.9332 F           1 FBV      -0.1813
     12 H1         15.8320    7.8709   13.5863 H           1 FBV       0.0607
     13 H2         16.3580    7.1347   15.8391 H           1 FBV       0.0583
     14 H3         16.8366    4.8100   16.2773 H           1 FBV       0.0627
     15 H4         15.8086    6.2780   11.7640 H           1 FBV       0.0604
     16 H5         18.0611    1.4142   16.3419 H           1 FBV       0.1634
     17 H6         18.3472    3.0763   16.3459 H           1 FBV       0.1634
@<TRIPOS>BOND
     1     1     2  ar
     2     1     6  ar
     3     2     3  ar
     4     3     4  ar
     5     4     5  ar
     6     4     7   1
     7     5     6  ar
     8     5    11   1
     9     7     8  am
    10     7     9   2
    11     7    10   2
    12     1    12   1
    13     2    13   1
    14     3    14   1
    15     6    15   1
    16     8    16   1
    17     8    17   1
@<TRIPOS>SUBSTRUCTURE
     1  FBV      1

