@<TRIPOS>MOLECULE
2weg_ligand_010
    17    17
SMALL
GAST_HUCK
****
This file was generated by PARSER (from files_GN.cpp)

@<TRIPOS>ATOM
      1 C1         14.9659    6.0013   14.1173 C.ar        1 FBV      -0.0635
      2 C2         15.3031    4.6378   14.1335 C.ar        1 FBV      -0.0640
      3 C3         15.1686    3.8943   15.3169 C.ar        1 FBV      -0.0369
      4 C4         14.7034    4.5105   16.5013 C.ar        1 FBV       0.1411
      5 C5         14.3375    5.8794   16.4686 C.ar        1 FBV       0.1588
      6 C6         14.4802    6.6197   15.2782 C.ar        1 FBV      -0.0262
      7 S          14.6065    3.5415   17.9559 S.o2        1 FBV       0.0666
      8 N2         14.5121    4.4214   19.3848 N.am        1 FBV      -0.2614
      9 O1         13.2778    2.6742   17.8303 O.2         1 FBV      -0.1511
     10 O2         15.8649    2.5717   18.0591 O.2         1 FBV      -0.1511
     11 F          13.8578    6.4942   17.5190 F           1 FBV      -0.1813
     12 H1         15.0740    6.5443   13.2628 H           1 FBV       0.0607
     13 H2         15.6505    4.1864   13.2838 H           1 FBV       0.0583
     14 H3         15.4176    2.9025   15.3096 H           1 FBV       0.0627
     15 H4         14.2312    7.6085   15.2588 H           1 FBV       0.0604
     16 H5         14.1896    3.9994   20.2023 H           1 FBV       0.1634
     17 H6         14.8196    5.3497   19.4081 H           1 FBV       0.1634
@<TRIPOS>BOND
     1     1     2  ar
     2     1     6  ar
     3     2     3  ar
     4     3     4  ar
     5     4     5  ar
     6     4     7   1
     7     5     6  ar
     8     5    11   1
     9     7     8  am
    10     7     9   2
    11     7    10   2
    12     1    12   1
    13     2    13   1
    14     3    14   1
    15     6    15   1
    16     8    16   1
    17     8    17   1
@<TRIPOS>SUBSTRUCTURE
     1  FBV      1

