@<TRIPOS>MOLECULE
2weg_ligand_026
    17    17
SMALL
GAST_HUCK
****
This file was generated by PARSER (from files_GN.cpp)

@<TRIPOS>ATOM
      1 C1         22.2173    6.6416   12.2838 C.ar        1 FBV      -0.0635
      2 C2         22.5512    5.6116   11.3872 C.ar        1 FBV      -0.0640
      3 C3         21.5583    4.7277   10.9286 C.ar        1 FBV      -0.0369
      4 C4         20.2187    4.8700   11.3529 C.ar        1 FBV       0.1411
      5 C5         19.8947    5.8915   12.2785 C.ar        1 FBV       0.1588
      6 C6         20.8928    6.7742   12.7373 C.ar        1 FBV      -0.0262
      7 S          18.9961    3.7841   10.7438 S.o2        1 FBV       0.0666
      8 N2         19.4802    2.8610    9.4244 N.am        1 FBV      -0.2614
      9 O1         18.6422    2.7921   11.9350 O.2         1 FBV      -0.1511
     10 O2         17.6954    4.6111   10.3507 O.2         1 FBV      -0.1511
     11 F          18.6791    6.0436   12.7347 F           1 FBV      -0.1813
     12 H1         22.9387    7.2860   12.6132 H           1 FBV       0.0607
     13 H2         23.5159    5.5047   11.0668 H           1 FBV       0.0583
     14 H3         21.8262    3.9815   10.2836 H           1 FBV       0.0627
     15 H4         20.6603    7.5159   13.4025 H           1 FBV       0.0604
     16 H5         18.9493    2.0939    9.1590 H           1 FBV       0.1634
     17 H6         20.3531    2.9934    9.0235 H           1 FBV       0.1634
@<TRIPOS>BOND
     1     1     2  ar
     2     1     6  ar
     3     2     3  ar
     4     3     4  ar
     5     4     5  ar
     6     4     7   1
     7     5     6  ar
     8     5    11   1
     9     7     8  am
    10     7     9   2
    11     7    10   2
    12     1    12   1
    13     2    13   1
    14     3    14   1
    15     6    15   1
    16     8    16   1
    17     8    17   1
@<TRIPOS>SUBSTRUCTURE
     1  FBV      1

