@<TRIPOS>MOLECULE
2wtv_ligand_082
    48    52
SMALL
GAST_HUCK
****
This file was generated by PARSER (from files_GN.cpp)

@<TRIPOS>ATOM
      1 C13         6.3635  -11.5237   -5.6012 C.3         1 ZZL       0.0407
      2 C15         5.4370  -12.9524   -3.8709 C.2         1 ZZL       0.0550
      3 C17         6.1270  -13.2575   -1.5626 C.ar        1 ZZL       0.1522
      4 C20         6.8026  -15.4668   -0.7706 C.ar        1 ZZL      -0.0589
      5 C21         6.5710  -16.0034   -2.0467 C.ar        1 ZZL      -0.0237
      6 C22         6.1103  -15.1745   -3.0880 C.ar        1 ZZL       0.1522
      7 C24         4.0740  -12.6704   -4.0774 C.ar        1 ZZL       0.0251
      8 C26         1.7430  -13.5053   -4.0905 C.ar        1 ZZL       0.0501
      9 C28         1.2830  -12.2626   -4.5385 C.ar        1 ZZL      -0.0388
     10 O01        -0.8897   -7.2447    0.0383 O.co2       1 ZZL      -0.5638
     11 C02        -0.7722   -6.6405   -1.1710 C.2         1 ZZL       0.0552
     12 O03        -1.8102   -5.8636   -1.5811 O.co2       1 ZZL      -0.5638
     13 C04         0.4633   -6.5785   -1.8632 C.ar        1 ZZL      -0.0018
     14 C05         0.4870   -6.6016   -3.2755 C.ar        1 ZZL      -0.0573
     15 C06         1.7135   -6.6102   -3.9576 C.ar        1 ZZL      -0.0347
     16 C07         2.9234   -6.5610   -3.2394 C.ar        1 ZZL       0.0671
     17 N08         4.1201   -6.6769   -3.8680 N.pl3       1 ZZL      -0.2432
     18 C09         4.6112   -7.8466   -4.3233 C.ar        1 ZZL       0.2053
     19 N10         5.8804   -7.8774   -4.7870 N.ar        1 ZZL      -0.2577
     20 C11         6.4581   -9.0291   -5.2110 C.ar        1 ZZL       0.0185
     21 C12         5.7521  -10.2518   -5.1526 C.ar        1 ZZL       0.0154
     22 N14         6.3946  -12.4156   -4.5406 N.2         1 ZZL      -0.3323
     23 C16         5.8777  -13.7924   -2.8539 C.ar        1 ZZL       0.0838
     24 F18         5.9479  -11.9931   -1.2940 F           1 ZZL      -0.1759
     25 C19         6.5898  -14.0976   -0.5306 C.ar        1 ZZL      -0.0237
     26 F23         5.8936  -15.7224   -4.2518 F           1 ZZL      -0.1759
     27 C25         3.1183  -13.7029   -3.8642 C.ar        1 ZZL      -0.0267
     28 CL1         0.6418  -14.7750   -3.8350 Cl          1 ZZL      -0.0667
     29 C29         2.1966  -11.2166   -4.7340 C.ar        1 ZZL      -0.0425
     30 C30         3.5897  -11.3865   -4.5014 C.ar        1 ZZL       0.0182
     31 C31         4.4206  -10.2190   -4.6544 C.ar        1 ZZL       0.0633
     32 N32         3.9182   -9.0134   -4.2496 N.ar        1 ZZL      -0.2522
     33 C33         2.9022   -6.4708   -1.8357 C.ar        1 ZZL      -0.0347
     34 C34         1.6798   -6.4906   -1.1478 C.ar        1 ZZL      -0.0573
     35 H1          7.3826  -11.3756   -5.9466 H           1 ZZL       0.0550
     36 H2          5.7849  -11.9327   -6.4259 H           1 ZZL       0.0550
     37 H3          7.1336  -16.0677   -0.0134 H           1 ZZL       0.0651
     38 H4          6.7337  -16.9996   -2.2145 H           1 ZZL       0.0588
     39 H5          0.2900  -12.1148   -4.7163 H           1 ZZL       0.0679
     40 H6         -0.3794   -6.6428   -3.8090 H           1 ZZL       0.0621
     41 H7          1.7280   -6.6652   -4.9757 H           1 ZZL       0.0543
     42 H8          4.7219   -5.9149   -3.8289 H           1 ZZL       0.2170
     43 H9          7.4160   -8.9952   -5.5476 H           1 ZZL       0.0835
     44 H10         6.7778  -13.7159    0.4069 H           1 ZZL       0.0588
     45 H11         3.4129  -14.6322   -3.5555 H           1 ZZL       0.0697
     46 H12         1.8212  -10.3131   -5.0558 H           1 ZZL       0.0662
     47 H13         3.7755   -6.4264   -1.3067 H           1 ZZL       0.0543
     48 H14         1.6798   -6.4339   -0.1215 H           1 ZZL       0.0621
@<TRIPOS>BOND
     1    21     1   1
     2     1    22   1
     3     2     7   1
     4    22     2   2
     5     2    23   1
     6    23     3  ar
     7     3    24   1
     8     3    25  ar
     9     5     4  ar
    10    25     4  ar
    11     6     5  ar
    12    23     6  ar
    13     6    26   1
    14     7    27  ar
    15     7    30  ar
    16     8     9  ar
    17    27     8  ar
    18     8    28   1
    19     9    29  ar
    20    11    10  ar
    21    11    12  ar
    22    13    11   1
    23    14    13  ar
    24    13    34  ar
    25    15    14  ar
    26    16    15  ar
    27    17    16   1
    28    16    33  ar
    29    18    17   1
    30    19    18  ar
    31    18    32  ar
    32    20    19  ar
    33    20    21  ar
    34    21    31  ar
    35    29    30  ar
    36    30    31   1
    37    31    32  ar
    38    33    34  ar
    39     1    35   1
    40     1    36   1
    41     4    37   1
    42     5    38   1
    43     9    39   1
    44    14    40   1
    45    15    41   1
    46    17    42   1
    47    20    43   1
    48    25    44   1
    49    27    45   1
    50    29    46   1
    51    33    47   1
    52    34    48   1
@<TRIPOS>SUBSTRUCTURE
     1  ZZL      1

