@<TRIPOS>MOLECULE
2wtv_ligand_043
    48    52
SMALL
GAST_HUCK
****
This file was generated by PARSER (from files_GN.cpp)

@<TRIPOS>ATOM
      1 C13         8.4311  -11.5524   -6.6247 C.3         1 ZZL       0.0407
      2 C15        10.1130  -10.5535   -5.1687 C.2         1 ZZL       0.0550
      3 C17        10.6382   -8.4515   -4.0367 C.ar        1 ZZL       0.1522
      4 C20        12.4437   -7.0405   -4.8712 C.ar        1 ZZL      -0.0589
      5 C21        12.6978   -7.9677   -5.8950 C.ar        1 ZZL      -0.0237
      6 C22        11.9196   -9.1355   -6.0037 C.ar        1 ZZL       0.1522
      7 C24        10.1536  -11.5527   -4.1706 C.ar        1 ZZL       0.0251
      8 C26        11.4991  -12.7195   -2.4565 C.ar        1 ZZL       0.0501
      9 C28        10.3686  -13.4394   -2.0554 C.ar        1 ZZL      -0.0388
     10 O01         3.8914  -14.1127    3.4320 O.co2       1 ZZL      -0.5638
     11 C02         4.7704  -13.3065    2.7988 C.2         1 ZZL       0.0552
     12 O03         5.8152  -12.8523    3.5284 O.co2       1 ZZL      -0.5638
     13 C04         4.6588  -13.0139    1.4203 C.ar        1 ZZL      -0.0018
     14 C05         3.4155  -12.8619    0.7619 C.ar        1 ZZL      -0.0573
     15 C06         3.3647  -12.5436   -0.6140 C.ar        1 ZZL      -0.0347
     16 C07         4.5443  -12.3879   -1.3812 C.ar        1 ZZL       0.0671
     17 N08         4.4055  -12.0723   -2.7217 N.pl3       1 ZZL      -0.2432
     18 C09         5.3578  -11.9722   -3.6828 C.ar        1 ZZL       0.2053
     19 N10         5.0440  -11.6370   -4.9608 N.ar        1 ZZL      -0.2577
     20 C11         5.9962  -11.5137   -5.9279 C.ar        1 ZZL       0.0185
     21 C12         7.3636  -11.7220   -5.6188 C.ar        1 ZZL       0.0154
     22 N14         9.3465  -10.5990   -6.2031 N.2         1 ZZL      -0.3323
     23 C16        10.8756   -9.3905   -5.0759 C.ar        1 ZZL       0.0838
     24 F18         9.6802   -8.6249   -3.1617 F           1 ZZL      -0.1759
     25 C19        11.4170   -7.2818   -3.9441 C.ar        1 ZZL      -0.0237
     26 F23        12.2111   -9.9850   -6.9549 F           1 ZZL      -0.1759
     27 C25        11.3892  -11.7961   -3.5081 C.ar        1 ZZL      -0.0267
     28 CL1        12.9788  -12.9624   -1.6742 Cl          1 ZZL      -0.0667
     29 C29         9.1482  -13.2513   -2.7163 C.ar        1 ZZL      -0.0425
     30 C30         9.0061  -12.3076   -3.7702 C.ar        1 ZZL       0.0182
     31 C31         7.6898  -12.0941   -4.2943 C.ar        1 ZZL       0.0633
     32 N32         6.6612  -12.1997   -3.4189 N.ar        1 ZZL      -0.2522
     33 C33         5.7775  -12.5428   -0.6978 C.ar        1 ZZL      -0.0347
     34 C34         5.8347  -12.8560    0.6637 C.ar        1 ZZL      -0.0573
     35 H1          8.0173  -11.2095   -7.5736 H           1 ZZL       0.0550
     36 H2          8.9387  -12.5055   -6.7942 H           1 ZZL       0.0550
     37 H3         13.0071   -6.1900   -4.8009 H           1 ZZL       0.0651
     38 H4         13.4545   -7.7914   -6.5605 H           1 ZZL       0.0588
     39 H5         10.4243  -14.0991   -1.2788 H           1 ZZL       0.0679
     40 H6          2.5399  -12.9567    1.2825 H           1 ZZL       0.0621
     41 H7          2.4489  -12.4202   -1.0545 H           1 ZZL       0.0543
     42 H8          3.4998  -11.9105   -3.0270 H           1 ZZL       0.2170
     43 H9          5.7041  -11.2628   -6.8768 H           1 ZZL       0.0835
     44 H10        11.2328   -6.5978   -3.2050 H           1 ZZL       0.0588
     45 H11        12.2358  -11.2906   -3.7867 H           1 ZZL       0.0697
     46 H12         8.3504  -13.8094   -2.3987 H           1 ZZL       0.0662
     47 H13         6.6726  -12.4080   -1.1548 H           1 ZZL       0.0543
     48 H14         6.7557  -12.9545    1.0979 H           1 ZZL       0.0621
@<TRIPOS>BOND
     1    21     1   1
     2     1    22   1
     3     2     7   1
     4    22     2   2
     5     2    23   1
     6    23     3  ar
     7     3    24   1
     8     3    25  ar
     9     5     4  ar
    10    25     4  ar
    11     6     5  ar
    12    23     6  ar
    13     6    26   1
    14     7    27  ar
    15     7    30  ar
    16     8     9  ar
    17    27     8  ar
    18     8    28   1
    19     9    29  ar
    20    11    10  ar
    21    11    12  ar
    22    13    11   1
    23    14    13  ar
    24    13    34  ar
    25    15    14  ar
    26    16    15  ar
    27    17    16   1
    28    16    33  ar
    29    18    17   1
    30    19    18  ar
    31    18    32  ar
    32    20    19  ar
    33    20    21  ar
    34    21    31  ar
    35    29    30  ar
    36    30    31   1
    37    31    32  ar
    38    33    34  ar
    39     1    35   1
    40     1    36   1
    41     4    37   1
    42     5    38   1
    43     9    39   1
    44    14    40   1
    45    15    41   1
    46    17    42   1
    47    20    43   1
    48    25    44   1
    49    27    45   1
    50    29    46   1
    51    33    47   1
    52    34    48   1
@<TRIPOS>SUBSTRUCTURE
     1  ZZL      1

