@<TRIPOS>MOLECULE
2wtv_ligand_023
    48    52
SMALL
GAST_HUCK
****
This file was generated by PARSER (from files_GN.cpp)

@<TRIPOS>ATOM
      1 C13         6.4505   -9.8602   -4.0280 C.3         1 ZZL       0.0407
      2 C15         4.5247  -11.0570   -3.1997 C.2         1 ZZL       0.0550
      3 C17         2.2709  -10.1279   -3.0229 C.ar        1 ZZL       0.1522
      4 C20         0.3778  -11.3715   -3.9172 C.ar        1 ZZL      -0.0589
      5 C21         1.2413  -12.4000   -4.3301 C.ar        1 ZZL      -0.0237
      6 C22         2.6219  -12.3095   -4.0717 C.ar        1 ZZL       0.1522
      7 C24         5.1821  -11.8194   -2.2115 C.ar        1 ZZL       0.0251
      8 C26         5.0868  -12.7813    0.0611 C.ar        1 ZZL       0.0501
      9 C28         6.3597  -13.3368   -0.1180 C.ar        1 ZZL      -0.0388
     10 O01        13.9720  -16.9316   -9.3647 O.co2       1 ZZL      -0.5638
     11 C02        13.3426  -15.7301   -9.3875 C.2         1 ZZL       0.0552
     12 O03        13.5685  -14.9517  -10.4738 O.co2       1 ZZL      -0.5638
     13 C04        12.4675  -15.3187   -8.3483 C.ar        1 ZZL      -0.0018
     14 C05        11.7708  -14.0916   -8.4250 C.ar        1 ZZL      -0.0573
     15 C06        10.8832  -13.6960   -7.4067 C.ar        1 ZZL      -0.0347
     16 C07        10.6333  -14.5183   -6.2822 C.ar        1 ZZL       0.0671
     17 N08         9.7464  -14.2568   -5.2617 N.pl3       1 ZZL      -0.2432
     18 C09         8.9473  -13.1870   -5.0296 C.ar        1 ZZL       0.2053
     19 N10         8.8986  -12.0813   -5.8107 N.ar        1 ZZL      -0.2577
     20 C11         8.0947  -11.0272   -5.5308 C.ar        1 ZZL       0.0185
     21 C12         7.2776  -11.0402   -4.3791 C.ar        1 ZZL       0.0154
     22 N14         5.1183  -10.2180   -3.9720 N.2         1 ZZL      -0.3323
     23 C16         3.1557  -11.1638   -3.4251 C.ar        1 ZZL       0.0838
     24 F18         2.7039   -9.0592   -2.4009 F           1 ZZL      -0.1759
     25 C19         0.8880  -10.2426   -3.2554 C.ar        1 ZZL      -0.0237
     26 F23         3.3909  -13.2952   -4.4649 F           1 ZZL      -0.1759
     27 C25         4.5062  -12.0382   -0.9791 C.ar        1 ZZL      -0.0267
     28 CL1         4.2653  -12.9899    1.5290 Cl          1 ZZL      -0.0667
     29 C29         7.0502  -13.1387   -1.3212 C.ar        1 ZZL      -0.0425
     30 C30         6.4970  -12.3721   -2.3824 C.ar        1 ZZL       0.0182
     31 C31         7.2947  -12.2068   -3.5695 C.ar        1 ZZL       0.0633
     32 N32         8.1397  -13.2184   -3.9370 N.ar        1 ZZL      -0.2522
     33 C33        11.3631  -15.7249   -6.1945 C.ar        1 ZZL      -0.0347
     34 C34        12.2571  -16.1230   -7.2073 C.ar        1 ZZL      -0.0573
     35 H1          6.5455   -9.0633   -4.7714 H           1 ZZL       0.0550
     36 H2          6.7645   -9.4470   -3.0639 H           1 ZZL       0.0550
     37 H3         -0.6270  -11.4438   -4.0985 H           1 ZZL       0.0651
     38 H4          0.8620  -13.2133   -4.8169 H           1 ZZL       0.0588
     39 H5          6.7893  -13.8872    0.6264 H           1 ZZL       0.0679
     40 H6         11.9060  -13.4650   -9.2236 H           1 ZZL       0.0621
     41 H7         10.4328  -12.7845   -7.5063 H           1 ZZL       0.0543
     42 H8          9.6316  -14.9853   -4.6267 H           1 ZZL       0.2170
     43 H9          8.1111  -10.2166   -6.1556 H           1 ZZL       0.0835
     44 H10         0.2508   -9.5080   -2.9444 H           1 ZZL       0.0588
     45 H11         3.5800  -11.6403   -0.8173 H           1 ZZL       0.0697
     46 H12         7.9826  -13.5528   -1.4035 H           1 ZZL       0.0662
     47 H13        11.2209  -16.3547   -5.3979 H           1 ZZL       0.0543
     48 H14        12.7274  -17.0295   -7.1152 H           1 ZZL       0.0621
@<TRIPOS>BOND
     1    21     1   1
     2     1    22   1
     3     2     7   1
     4    22     2   2
     5     2    23   1
     6    23     3  ar
     7     3    24   1
     8     3    25  ar
     9     5     4  ar
    10    25     4  ar
    11     6     5  ar
    12    23     6  ar
    13     6    26   1
    14     7    27  ar
    15     7    30  ar
    16     8     9  ar
    17    27     8  ar
    18     8    28   1
    19     9    29  ar
    20    11    10  ar
    21    11    12  ar
    22    13    11   1
    23    14    13  ar
    24    13    34  ar
    25    15    14  ar
    26    16    15  ar
    27    17    16   1
    28    16    33  ar
    29    18    17   1
    30    19    18  ar
    31    18    32  ar
    32    20    19  ar
    33    20    21  ar
    34    21    31  ar
    35    29    30  ar
    36    30    31   1
    37    31    32  ar
    38    33    34  ar
    39     1    35   1
    40     1    36   1
    41     4    37   1
    42     5    38   1
    43     9    39   1
    44    14    40   1
    45    15    41   1
    46    17    42   1
    47    20    43   1
    48    25    44   1
    49    27    45   1
    50    29    46   1
    51    33    47   1
    52    34    48   1
@<TRIPOS>SUBSTRUCTURE
     1  ZZL      1

