@<TRIPOS>MOLECULE
2wtv_ligand_049
    48    52
SMALL
GAST_HUCK
****
This file was generated by PARSER (from files_GN.cpp)

@<TRIPOS>ATOM
      1 C13         6.8169   -8.5997   -2.5148 C.3         1 ZZL       0.0407
      2 C15         6.3943  -10.3675   -4.1077 C.2         1 ZZL       0.0550
      3 C17         6.5652  -10.5524   -6.5162 C.ar        1 ZZL       0.1522
      4 C20         4.5815  -11.0102   -7.8582 C.ar        1 ZZL      -0.0589
      5 C21         3.7924  -11.0282   -6.6945 C.ar        1 ZZL      -0.0237
      6 C22         4.3834  -10.7954   -5.4366 C.ar        1 ZZL       0.1522
      7 C24         7.1488  -11.3847   -3.4837 C.ar        1 ZZL       0.0251
      8 C26         7.3224  -13.7904   -2.9742 C.ar        1 ZZL       0.0501
      9 C28         8.5657  -13.5731   -2.3645 C.ar        1 ZZL      -0.0388
     10 O01        14.8997  -14.3458   -2.9488 O.co2       1 ZZL      -0.5638
     11 C02        15.5728  -13.1673   -2.9106 C.2         1 ZZL       0.0552
     12 O03        16.9132  -13.1608   -3.1431 O.co2       1 ZZL      -0.5638
     13 C04        14.8611  -11.9716   -2.7355 C.ar        1 ZZL      -0.0018
     14 C05        15.0138  -10.9016   -3.6446 C.ar        1 ZZL      -0.0573
     15 C06        14.2069   -9.7535   -3.5168 C.ar        1 ZZL      -0.0347
     16 C07        13.2415   -9.6753   -2.4906 C.ar        1 ZZL       0.0671
     17 N08        12.4310   -8.5901   -2.4084 N.pl3       1 ZZL      -0.2432
     18 C09        11.0844   -8.6390   -2.4248 C.ar        1 ZZL       0.2053
     19 N10        10.3992   -7.4803   -2.3236 N.ar        1 ZZL      -0.2577
     20 C11         9.0442   -7.4494   -2.3700 C.ar        1 ZZL       0.0185
     21 C12         8.2995   -8.6407   -2.5294 C.ar        1 ZZL       0.0154
     22 N14         6.2951   -9.1618   -3.6658 N.2         1 ZZL      -0.3323
     23 C16         5.7814  -10.5675   -5.3368 C.ar        1 ZZL       0.0838
     24 F18         7.8565  -10.3467   -6.4837 F           1 ZZL      -0.1759
     25 C19         5.9593  -10.7519   -7.7717 C.ar        1 ZZL      -0.0237
     26 F23         3.6193  -10.8314   -4.3762 F           1 ZZL      -0.1759
     27 C25         6.6281  -12.7076   -3.5323 C.ar        1 ZZL      -0.0267
     28 CL1         6.6614  -15.3493   -3.0209 Cl          1 ZZL      -0.0667
     29 C29         9.0897  -12.2752   -2.2879 C.ar        1 ZZL      -0.0425
     30 C30         8.4029  -11.1541   -2.8225 C.ar        1 ZZL       0.0182
     31 C31         9.0165   -9.8604   -2.6597 C.ar        1 ZZL       0.0633
     32 N32        10.3772   -9.7890   -2.5905 N.ar        1 ZZL      -0.2522
     33 C33        13.1153  -10.7360   -1.5673 C.ar        1 ZZL      -0.0347
     34 C34        13.9252  -11.8755   -1.6813 C.ar        1 ZZL      -0.0573
     35 H1          6.4466   -7.5781   -2.4618 H           1 ZZL       0.0550
     36 H2          6.4401   -9.1392   -1.6423 H           1 ZZL       0.0550
     37 H3          4.1546  -11.1783   -8.7715 H           1 ZZL       0.0651
     38 H4          2.7899  -11.2112   -6.7638 H           1 ZZL       0.0588
     39 H5          9.0885  -14.3576   -1.9598 H           1 ZZL       0.0679
     40 H6         15.6629  -10.9627   -4.4318 H           1 ZZL       0.0621
     41 H7         14.2870   -9.0023   -4.2093 H           1 ZZL       0.0543
     42 H8         12.8628   -7.7192   -2.4177 H           1 ZZL       0.2170
     43 H9          8.5809   -6.5450   -2.2902 H           1 ZZL       0.0835
     44 H10         6.5176  -10.7095   -8.6230 H           1 ZZL       0.0588
     45 H11         5.7200  -12.8919   -3.9611 H           1 ZZL       0.0697
     46 H12         9.9828  -12.1669   -1.8037 H           1 ZZL       0.0662
     47 H13        12.4192  -10.6982   -0.8191 H           1 ZZL       0.0543
     48 H14        13.8155  -12.6295   -0.9990 H           1 ZZL       0.0621
@<TRIPOS>BOND
     1    21     1   1
     2     1    22   1
     3     2     7   1
     4    22     2   2
     5     2    23   1
     6    23     3  ar
     7     3    24   1
     8     3    25  ar
     9     5     4  ar
    10    25     4  ar
    11     6     5  ar
    12    23     6  ar
    13     6    26   1
    14     7    27  ar
    15     7    30  ar
    16     8     9  ar
    17    27     8  ar
    18     8    28   1
    19     9    29  ar
    20    11    10  ar
    21    11    12  ar
    22    13    11   1
    23    14    13  ar
    24    13    34  ar
    25    15    14  ar
    26    16    15  ar
    27    17    16   1
    28    16    33  ar
    29    18    17   1
    30    19    18  ar
    31    18    32  ar
    32    20    19  ar
    33    20    21  ar
    34    21    31  ar
    35    29    30  ar
    36    30    31   1
    37    31    32  ar
    38    33    34  ar
    39     1    35   1
    40     1    36   1
    41     4    37   1
    42     5    38   1
    43     9    39   1
    44    14    40   1
    45    15    41   1
    46    17    42   1
    47    20    43   1
    48    25    44   1
    49    27    45   1
    50    29    46   1
    51    33    47   1
    52    34    48   1
@<TRIPOS>SUBSTRUCTURE
     1  ZZL      1

