@<TRIPOS>MOLECULE
2wtv_ligand_031
    48    52
SMALL
GAST_HUCK
****
This file was generated by PARSER (from files_GN.cpp)

@<TRIPOS>ATOM
      1 C13        12.8286   -5.8594   -0.9567 C.3         1 ZZL       0.0407
      2 C15        14.0051   -7.9935   -0.9855 C.2         1 ZZL       0.0550
      3 C17        15.9101   -8.3864    0.5338 C.ar        1 ZZL       0.1522
      4 C20        16.2467  -10.5852    1.5315 C.ar        1 ZZL      -0.0589
      5 C21        15.0950  -11.0563    0.8832 C.ar        1 ZZL      -0.0237
      6 C22        14.3447  -10.1967    0.0573 C.ar        1 ZZL       0.1522
      7 C24        13.7061   -8.3267   -2.3280 C.ar        1 ZZL       0.0251
      8 C26        14.5112   -9.3236   -4.4366 C.ar        1 ZZL       0.0501
      9 C28        13.2757   -9.0486   -5.0437 C.ar        1 ZZL      -0.0388
     10 O01         1.9744   -5.1578   -1.2365 O.co2       1 ZZL      -0.5638
     11 C02         2.6676   -6.1736   -0.6646 C.2         1 ZZL       0.0552
     12 O03         2.0929   -6.7809    0.4046 O.co2       1 ZZL      -0.5638
     13 C04         3.9530   -6.5586   -1.1269 C.ar        1 ZZL      -0.0018
     14 C05         4.8209   -5.6283   -1.7470 C.ar        1 ZZL      -0.0573
     15 C06         6.1061   -6.0167   -2.1628 C.ar        1 ZZL      -0.0347
     16 C07         6.5391   -7.3525   -2.0013 C.ar        1 ZZL       0.0671
     17 N08         7.7582   -7.7876   -2.4309 N.pl3       1 ZZL      -0.2432
     18 C09         8.9565   -7.2734   -2.0686 C.ar        1 ZZL       0.2053
     19 N10         9.0925   -6.2523   -1.1843 N.ar        1 ZZL      -0.2577
     20 C11        10.3118   -5.7932   -0.8152 C.ar        1 ZZL       0.0185
     21 C12        11.4901   -6.3613   -1.3532 C.ar        1 ZZL       0.0154
     22 N14        13.5916   -6.9001   -0.4405 N.2         1 ZZL      -0.3323
     23 C16        14.7431   -8.8442   -0.1422 C.ar        1 ZZL       0.0838
     24 F18        16.3544   -7.1652    0.3843 F           1 ZZL      -0.1759
     25 C19        16.6509   -9.2526    1.3631 C.ar        1 ZZL      -0.0237
     26 F23        13.2566  -10.6809   -0.4855 F           1 ZZL      -0.1759
     27 C25        14.7196   -8.9617   -3.0958 C.ar        1 ZZL      -0.0267
     28 CL1        15.7399  -10.0775   -5.3269 Cl          1 ZZL      -0.0667
     29 C29        12.2630   -8.4159   -4.3079 C.ar        1 ZZL      -0.0425
     30 C30        12.4455   -8.0466   -2.9510 C.ar        1 ZZL       0.0182
     31 C31        11.3465   -7.4183   -2.2889 C.ar        1 ZZL       0.0633
     32 N32        10.0810   -7.8279   -2.5903 N.ar        1 ZZL      -0.2522
     33 C33         5.6597   -8.2923   -1.4294 C.ar        1 ZZL      -0.0347
     34 C34         4.3916   -7.8945   -0.9757 C.ar        1 ZZL      -0.0573
     35 H1         12.7568   -5.0880   -0.1867 H           1 ZZL       0.0550
     36 H2         13.3273   -5.4203   -1.8231 H           1 ZZL       0.0550
     37 H3         16.7912  -11.2141    2.1307 H           1 ZZL       0.0651
     38 H4         14.8013  -12.0281    1.0195 H           1 ZZL       0.0588
     39 H5         13.1134   -9.3008   -6.0243 H           1 ZZL       0.0679
     40 H6          4.5329   -4.6612   -1.8869 H           1 ZZL       0.0621
     41 H7          6.7204   -5.3319   -2.6060 H           1 ZZL       0.0543
     42 H8          7.7768   -8.6025   -2.9571 H           1 ZZL       0.2170
     43 H9         10.3581   -5.0208   -0.1429 H           1 ZZL       0.0835
     44 H10        17.4903   -8.9158    1.8407 H           1 ZZL       0.0588
     45 H11        15.6387   -9.1524   -2.6865 H           1 ZZL       0.0697
     46 H12        11.3873   -8.2118   -4.7963 H           1 ZZL       0.0662
     47 H13         5.9413   -9.2683   -1.3219 H           1 ZZL       0.0543
     48 H14         3.7810   -8.5997   -0.5513 H           1 ZZL       0.0621
@<TRIPOS>BOND
     1    21     1   1
     2     1    22   1
     3     2     7   1
     4    22     2   2
     5     2    23   1
     6    23     3  ar
     7     3    24   1
     8     3    25  ar
     9     5     4  ar
    10    25     4  ar
    11     6     5  ar
    12    23     6  ar
    13     6    26   1
    14     7    27  ar
    15     7    30  ar
    16     8     9  ar
    17    27     8  ar
    18     8    28   1
    19     9    29  ar
    20    11    10  ar
    21    11    12  ar
    22    13    11   1
    23    14    13  ar
    24    13    34  ar
    25    15    14  ar
    26    16    15  ar
    27    17    16   1
    28    16    33  ar
    29    18    17   1
    30    19    18  ar
    31    18    32  ar
    32    20    19  ar
    33    20    21  ar
    34    21    31  ar
    35    29    30  ar
    36    30    31   1
    37    31    32  ar
    38    33    34  ar
    39     1    35   1
    40     1    36   1
    41     4    37   1
    42     5    38   1
    43     9    39   1
    44    14    40   1
    45    15    41   1
    46    17    42   1
    47    20    43   1
    48    25    44   1
    49    27    45   1
    50    29    46   1
    51    33    47   1
    52    34    48   1
@<TRIPOS>SUBSTRUCTURE
     1  ZZL      1

