@<TRIPOS>MOLECULE
2wtv_ligand_088
    48    52
SMALL
GAST_HUCK
****
This file was generated by PARSER (from files_GN.cpp)

@<TRIPOS>ATOM
      1 C13         6.8094  -14.6478    0.0666 C.3         1 ZZL       0.0407
      2 C15         6.7662  -15.6360   -2.1498 C.2         1 ZZL       0.0550
      3 C17         5.4083  -16.5919   -3.9562 C.ar        1 ZZL       0.1522
      4 C20         5.2958  -19.0030   -4.2909 C.ar        1 ZZL      -0.0589
      5 C21         6.1021  -19.1951   -3.1580 C.ar        1 ZZL      -0.0237
      6 C22         6.5789  -18.0864   -2.4319 C.ar        1 ZZL       0.1522
      7 C24         7.3906  -14.5527   -2.8135 C.ar        1 ZZL       0.0251
      8 C26         8.9150  -13.8436   -4.6268 C.ar        1 ZZL       0.0501
      9 C28         8.6572  -12.4985   -4.3282 C.ar        1 ZZL      -0.0388
     10 O01         4.5971   -6.2875   -6.2268 O.co2       1 ZZL      -0.5638
     11 C02         3.7005   -6.2788   -5.2121 C.2         1 ZZL       0.0552
     12 O03         2.7244   -5.3385   -5.2080 O.co2       1 ZZL      -0.5638
     13 C04         3.7905   -7.2201   -4.1714 C.ar        1 ZZL      -0.0018
     14 C05         4.1169   -8.5651   -4.4492 C.ar        1 ZZL      -0.0573
     15 C06         4.1663   -9.5085   -3.4123 C.ar        1 ZZL      -0.0347
     16 C07         3.9362   -9.1147   -2.0743 C.ar        1 ZZL       0.0671
     17 N08         3.9431   -9.9554   -1.0045 N.pl3       1 ZZL      -0.2432
     18 C09         4.6168  -11.1099   -0.8219 C.ar        1 ZZL       0.2053
     19 N10         4.4224  -11.7637    0.3484 N.ar        1 ZZL      -0.2577
     20 C11         5.0963  -12.9003    0.6479 C.ar        1 ZZL       0.0185
     21 C12         6.0383  -13.4324   -0.2610 C.ar        1 ZZL       0.0154
     22 N14         6.5557  -15.6334   -0.8798 N.2         1 ZZL      -0.3323
     23 C16         6.2709  -16.7576   -2.8376 C.ar        1 ZZL       0.0838
     24 F18         4.9735  -15.4138   -4.3134 F           1 ZZL      -0.1759
     25 C19         4.9364  -17.7024   -4.6781 C.ar        1 ZZL      -0.0237
     26 F23         7.3288  -18.3342   -1.3896 F           1 ZZL      -0.1759
     27 C25         8.3056  -14.8527   -3.8581 C.ar        1 ZZL      -0.0267
     28 CL1         9.9410  -14.2428   -5.9181 Cl          1 ZZL      -0.0667
     29 C29         7.7868  -12.1738   -3.2784 C.ar        1 ZZL      -0.0425
     30 C30         7.1353  -13.1765   -2.5108 C.ar        1 ZZL       0.0182
     31 C31         6.2257  -12.7531   -1.4938 C.ar        1 ZZL       0.0633
     32 N32         5.5085  -11.6200   -1.7081 N.ar        1 ZZL      -0.2522
     33 C33         3.6148   -7.7694   -1.8023 C.ar        1 ZZL      -0.0347
     34 C34         3.5348   -6.8294   -2.8390 C.ar        1 ZZL      -0.0573
     35 H1          6.5465  -15.0471    1.0479 H           1 ZZL       0.0550
     36 H2          7.8736  -14.4119    0.0765 H           1 ZZL       0.0550
     37 H3          4.9559  -19.8092   -4.8203 H           1 ZZL       0.0651
     38 H4          6.3419  -20.1476   -2.8639 H           1 ZZL       0.0588
     39 H5          9.0948  -11.7543   -4.8777 H           1 ZZL       0.0679
     40 H6          4.2811   -8.8722   -5.4089 H           1 ZZL       0.0621
     41 H7          4.3368  -10.4830   -3.6457 H           1 ZZL       0.0543
     42 H8          3.4594   -9.6401   -0.2259 H           1 ZZL       0.2170
     43 H9          4.9153  -13.3452    1.5523 H           1 ZZL       0.0835
     44 H10         4.3212  -17.5676   -5.4825 H           1 ZZL       0.0588
     45 H11         8.5356  -15.8251   -4.0742 H           1 ZZL       0.0697
     46 H12         7.6370  -11.1814   -3.0826 H           1 ZZL       0.0662
     47 H13         3.4424   -7.4624   -0.8409 H           1 ZZL       0.0543
     48 H14         3.3105   -5.8564   -2.6106 H           1 ZZL       0.0621
@<TRIPOS>BOND
     1    21     1   1
     2     1    22   1
     3     2     7   1
     4    22     2   2
     5     2    23   1
     6    23     3  ar
     7     3    24   1
     8     3    25  ar
     9     5     4  ar
    10    25     4  ar
    11     6     5  ar
    12    23     6  ar
    13     6    26   1
    14     7    27  ar
    15     7    30  ar
    16     8     9  ar
    17    27     8  ar
    18     8    28   1
    19     9    29  ar
    20    11    10  ar
    21    11    12  ar
    22    13    11   1
    23    14    13  ar
    24    13    34  ar
    25    15    14  ar
    26    16    15  ar
    27    17    16   1
    28    16    33  ar
    29    18    17   1
    30    19    18  ar
    31    18    32  ar
    32    20    19  ar
    33    20    21  ar
    34    21    31  ar
    35    29    30  ar
    36    30    31   1
    37    31    32  ar
    38    33    34  ar
    39     1    35   1
    40     1    36   1
    41     4    37   1
    42     5    38   1
    43     9    39   1
    44    14    40   1
    45    15    41   1
    46    17    42   1
    47    20    43   1
    48    25    44   1
    49    27    45   1
    50    29    46   1
    51    33    47   1
    52    34    48   1
@<TRIPOS>SUBSTRUCTURE
     1  ZZL      1

