@<TRIPOS>MOLECULE
2wtv_ligand_095
    48    52
SMALL
GAST_HUCK
****
This file was generated by PARSER (from files_GN.cpp)

@<TRIPOS>ATOM
      1 C13         3.2024  -15.3739   -4.3379 C.3         1 ZZL       0.0407
      2 C15         5.0466  -13.9833   -3.5680 C.2         1 ZZL       0.0550
      3 C17         5.8033  -13.5749   -1.2899 C.ar        1 ZZL       0.1522
      4 C20         8.1555  -13.8889   -0.7368 C.ar        1 ZZL      -0.0589
      5 C21         8.4055  -14.3671   -2.0298 C.ar        1 ZZL      -0.0237
      6 C22         7.3557  -14.4687   -2.9570 C.ar        1 ZZL       0.1522
      7 C24         4.9017  -12.8750   -4.4401 C.ar        1 ZZL       0.0251
      8 C26         5.9814  -11.0463   -5.7171 C.ar        1 ZZL       0.0501
      9 C28         4.7339  -10.6238   -6.1904 C.ar        1 ZZL      -0.0388
     10 O01        -1.3676   -5.1910   -4.4754 O.co2       1 ZZL      -0.5638
     11 C02        -0.4568   -5.9367   -3.8084 C.2         1 ZZL       0.0552
     12 O03         0.5004   -5.2588   -3.1339 O.co2       1 ZZL      -0.5638
     13 C04        -0.5280   -7.3509   -3.7921 C.ar        1 ZZL      -0.0018
     14 C05        -1.6110   -8.0306   -4.3979 C.ar        1 ZZL      -0.0573
     15 C06        -1.7002   -9.4346   -4.3698 C.ar        1 ZZL      -0.0347
     16 C07        -0.6954  -10.1958   -3.7432 C.ar        1 ZZL       0.0671
     17 N08        -0.8463  -11.5468   -3.6955 N.pl3       1 ZZL      -0.2432
     18 C09         0.1202  -12.4687   -3.8885 C.ar        1 ZZL       0.2053
     19 N10        -0.1408  -13.7823   -3.6842 N.ar        1 ZZL      -0.2577
     20 C11         0.8186  -14.7266   -3.8436 C.ar        1 ZZL       0.0185
     21 C12         2.1293  -14.3626   -4.2292 C.ar        1 ZZL       0.0154
     22 N14         4.2851  -15.0204   -3.5473 N.2         1 ZZL      -0.3323
     23 C16         6.0521  -14.0274   -2.6077 C.ar        1 ZZL       0.0838
     24 F18         4.6121  -13.1825   -0.9071 F           1 ZZL      -0.1759
     25 C19         6.8525  -13.5141   -0.3551 C.ar        1 ZZL      -0.0237
     26 F23         7.6377  -14.9156   -4.1528 F           1 ZZL      -0.1759
     27 C25         6.0530  -12.1437   -4.8468 C.ar        1 ZZL      -0.0267
     28 CL1         7.3949  -10.2465   -6.1883 Cl          1 ZZL      -0.0667
     29 C29         3.5759  -11.3064   -5.7960 C.ar        1 ZZL      -0.0425
     30 C30         3.6279  -12.4283   -4.9172 C.ar        1 ZZL       0.0182
     31 C31         2.3808  -12.9908   -4.4963 C.ar        1 ZZL       0.0633
     32 N32         1.3618  -12.1191   -4.2945 N.ar        1 ZZL      -0.2522
     33 C33         0.3839   -9.5267   -3.1216 C.ar        1 ZZL      -0.0347
     34 C34         0.4688   -8.1231   -3.1512 C.ar        1 ZZL      -0.0573
     35 H1          3.5121  -15.4703   -5.3772 H           1 ZZL       0.0550
     36 H2          2.8612  -16.3565   -4.0048 H           1 ZZL       0.0550
     37 H3          8.9231  -13.8206   -0.0724 H           1 ZZL       0.0651
     38 H4          9.3565  -14.6351   -2.2993 H           1 ZZL       0.0588
     39 H5          4.6648   -9.8136   -6.8125 H           1 ZZL       0.0679
     40 H6         -2.3693   -7.5115   -4.8413 H           1 ZZL       0.0621
     41 H7         -2.5042   -9.8967   -4.8004 H           1 ZZL       0.0543
     42 H8         -1.7409  -11.8773   -3.5430 H           1 ZZL       0.2170
     43 H9          0.5744  -15.7019   -3.6615 H           1 ZZL       0.0835
     44 H10         6.6811  -13.1792    0.5942 H           1 ZZL       0.0588
     45 H11         6.9839  -12.4075   -4.5293 H           1 ZZL       0.0697
     46 H12         2.6832  -10.9633   -6.1588 H           1 ZZL       0.0662
     47 H13         1.0989  -10.0542   -2.6171 H           1 ZZL       0.0543
     48 H14         1.2632   -7.6763   -2.6866 H           1 ZZL       0.0621
@<TRIPOS>BOND
     1    21     1   1
     2     1    22   1
     3     2     7   1
     4    22     2   2
     5     2    23   1
     6    23     3  ar
     7     3    24   1
     8     3    25  ar
     9     5     4  ar
    10    25     4  ar
    11     6     5  ar
    12    23     6  ar
    13     6    26   1
    14     7    27  ar
    15     7    30  ar
    16     8     9  ar
    17    27     8  ar
    18     8    28   1
    19     9    29  ar
    20    11    10  ar
    21    11    12  ar
    22    13    11   1
    23    14    13  ar
    24    13    34  ar
    25    15    14  ar
    26    16    15  ar
    27    17    16   1
    28    16    33  ar
    29    18    17   1
    30    19    18  ar
    31    18    32  ar
    32    20    19  ar
    33    20    21  ar
    34    21    31  ar
    35    29    30  ar
    36    30    31   1
    37    31    32  ar
    38    33    34  ar
    39     1    35   1
    40     1    36   1
    41     4    37   1
    42     5    38   1
    43     9    39   1
    44    14    40   1
    45    15    41   1
    46    17    42   1
    47    20    43   1
    48    25    44   1
    49    27    45   1
    50    29    46   1
    51    33    47   1
    52    34    48   1
@<TRIPOS>SUBSTRUCTURE
     1  ZZL      1

