@<TRIPOS>MOLECULE
2wtv_ligand_092
    48    52
SMALL
GAST_HUCK
****
This file was generated by PARSER (from files_GN.cpp)

@<TRIPOS>ATOM
      1 C13         5.1172   -7.6670    0.8758 C.3         1 ZZL       0.0407
      2 C15         6.9404   -6.9110   -0.5472 C.2         1 ZZL       0.0550
      3 C17         8.3988   -5.2542   -1.6657 C.ar        1 ZZL       0.1522
      4 C20        10.3622   -4.3512   -0.5357 C.ar        1 ZZL      -0.0589
      5 C21        10.0469   -5.1041    0.6058 C.ar        1 ZZL      -0.0237
      6 C22         8.9172   -5.9489    0.6097 C.ar        1 ZZL       0.1522
      7 C24         6.5797   -7.7000   -1.6707 C.ar        1 ZZL       0.0251
      8 C26         7.3628   -9.0517   -3.5819 C.ar        1 ZZL       0.0501
      9 C28         6.0376   -9.2600   -3.9856 C.ar        1 ZZL      -0.0388
     10 O01         0.9476   -6.7990   -8.6621 O.co2       1 ZZL      -0.5638
     11 C02        -0.0833   -6.7356   -7.7930 C.2         1 ZZL       0.0552
     12 O03        -1.3368   -6.7939   -8.2954 O.co2       1 ZZL      -0.5638
     13 C04         0.1440   -6.6226   -6.4071 C.ar        1 ZZL      -0.0018
     14 C05        -0.7357   -7.2178   -5.4761 C.ar        1 ZZL      -0.0573
     15 C06        -0.5269   -7.0809   -4.0983 C.ar        1 ZZL      -0.0347
     16 C07         0.5854   -6.3707   -3.6154 C.ar        1 ZZL       0.0671
     17 N08         0.7235   -6.2473   -2.2767 N.pl3       1 ZZL      -0.2432
     18 C09         1.8381   -6.5365   -1.5737 C.ar        1 ZZL       0.2053
     19 N10         1.7617   -6.4105   -0.2313 N.ar        1 ZZL      -0.2577
     20 C11         2.8002   -6.7450    0.5723 C.ar        1 ZZL       0.0185
     21 C12         3.9924   -7.2573    0.0138 C.ar        1 ZZL       0.0154
     22 N14         6.2516   -6.9458    0.5395 N.2         1 ZZL      -0.3323
     23 C16         8.0676   -6.0548   -0.5333 C.ar        1 ZZL       0.0838
     24 F18         7.6497   -5.2226   -2.7375 F           1 ZZL      -0.1759
     25 C19         9.5396   -4.4272   -1.6698 C.ar        1 ZZL      -0.0237
     26 F23         8.7185   -6.6456    1.6978 F           1 ZZL      -0.1759
     27 C25         7.6232   -8.2973   -2.4273 C.ar        1 ZZL      -0.0267
     28 CL1         8.6364   -9.7027   -4.4818 Cl          1 ZZL      -0.0667
     29 C29         4.9844   -8.7133   -3.2365 C.ar        1 ZZL      -0.0425
     30 C30         5.2214   -7.9226   -2.0816 C.ar        1 ZZL       0.0182
     31 C31         4.0758   -7.3855   -1.3982 C.ar        1 ZZL       0.0633
     32 N32         2.9829   -7.0177   -2.1270 N.ar        1 ZZL      -0.2522
     33 C33         1.4787   -5.7757   -4.5310 C.ar        1 ZZL      -0.0347
     34 C34         1.2517   -5.8937   -5.9143 C.ar        1 ZZL      -0.0573
     35 H1          5.2892   -8.7388    0.7731 H           1 ZZL       0.0550
     36 H2          4.8977   -7.4687    1.9191 H           1 ZZL       0.0550
     37 H3         11.1845   -3.7446   -0.5393 H           1 ZZL       0.0651
     38 H4         10.6482   -5.0402    1.4303 H           1 ZZL       0.0588
     39 H5          5.8326   -9.8148   -4.8180 H           1 ZZL       0.0679
     40 H6         -1.5300   -7.7723   -5.7908 H           1 ZZL       0.0621
     41 H7         -1.1816   -7.5166   -3.4458 H           1 ZZL       0.0543
     42 H8         -0.0925   -6.1115   -1.7697 H           1 ZZL       0.2170
     43 H9          2.6864   -6.6399    1.5841 H           1 ZZL       0.0835
     44 H10         9.7695   -3.8705   -2.4976 H           1 ZZL       0.0588
     45 H11         8.5996   -8.1775   -2.1443 H           1 ZZL       0.0697
     46 H12         4.0312   -8.9128   -3.5480 H           1 ZZL       0.0662
     47 H13         2.2610   -5.2105   -4.1948 H           1 ZZL       0.0543
     48 H14         1.8779   -5.3977   -6.5534 H           1 ZZL       0.0621
@<TRIPOS>BOND
     1    21     1   1
     2     1    22   1
     3     2     7   1
     4    22     2   2
     5     2    23   1
     6    23     3  ar
     7     3    24   1
     8     3    25  ar
     9     5     4  ar
    10    25     4  ar
    11     6     5  ar
    12    23     6  ar
    13     6    26   1
    14     7    27  ar
    15     7    30  ar
    16     8     9  ar
    17    27     8  ar
    18     8    28   1
    19     9    29  ar
    20    11    10  ar
    21    11    12  ar
    22    13    11   1
    23    14    13  ar
    24    13    34  ar
    25    15    14  ar
    26    16    15  ar
    27    17    16   1
    28    16    33  ar
    29    18    17   1
    30    19    18  ar
    31    18    32  ar
    32    20    19  ar
    33    20    21  ar
    34    21    31  ar
    35    29    30  ar
    36    30    31   1
    37    31    32  ar
    38    33    34  ar
    39     1    35   1
    40     1    36   1
    41     4    37   1
    42     5    38   1
    43     9    39   1
    44    14    40   1
    45    15    41   1
    46    17    42   1
    47    20    43   1
    48    25    44   1
    49    27    45   1
    50    29    46   1
    51    33    47   1
    52    34    48   1
@<TRIPOS>SUBSTRUCTURE
     1  ZZL      1

