@<TRIPOS>MOLECULE
2wtv_ligand_055
    48    52
SMALL
GAST_HUCK
****
This file was generated by PARSER (from files_GN.cpp)

@<TRIPOS>ATOM
      1 C13         8.6799   -7.4885   -2.0250 C.3         1 ZZL       0.0407
      2 C15         8.2023   -9.2547   -3.6439 C.2         1 ZZL       0.0550
      3 C17         7.8789  -10.5629   -5.7106 C.ar        1 ZZL       0.1522
      4 C20         6.1646   -9.9371   -7.3325 C.ar        1 ZZL      -0.0589
      5 C21         5.8609   -8.8049   -6.5639 C.ar        1 ZZL      -0.0237
      6 C22         6.5282   -8.5673   -5.3462 C.ar        1 ZZL       0.1522
      7 C24         8.8673  -10.2790   -2.9279 C.ar        1 ZZL       0.0251
      8 C26         8.8650  -12.6463   -2.2361 C.ar        1 ZZL       0.0501
      9 C28        10.0982  -12.4707   -1.5939 C.ar        1 ZZL      -0.0388
     10 O01        17.3871  -13.2731   -3.2645 O.co2       1 ZZL      -0.5638
     11 C02        17.2950  -12.4865   -2.1653 C.2         1 ZZL       0.0552
     12 O03        17.9291  -12.9346   -1.0512 O.co2       1 ZZL      -0.5638
     13 C04        16.5595  -11.2703   -2.1728 C.ar        1 ZZL      -0.0018
     14 C05        16.5288  -10.4363   -3.3172 C.ar        1 ZZL      -0.0573
     15 C06        15.7834   -9.2380   -3.3182 C.ar        1 ZZL      -0.0347
     16 C07        15.0256   -8.8747   -2.1877 C.ar        1 ZZL       0.0671
     17 N08        14.2803   -7.7415   -2.2015 N.pl3       1 ZZL      -0.2432
     18 C09        12.9296   -7.7217   -2.1500 C.ar        1 ZZL       0.2053
     19 N10        12.3079   -6.5228   -2.0847 N.ar        1 ZZL      -0.2577
     20 C11        10.9584   -6.4257   -2.0382 C.ar        1 ZZL       0.0185
     21 C12        10.1551   -7.5874   -2.0743 C.ar        1 ZZL       0.0154
     22 N14         8.1445   -8.0566   -3.1736 N.2         1 ZZL      -0.3323
     23 C16         7.5437   -9.4582   -4.8753 C.ar        1 ZZL       0.0838
     24 F18         8.8638  -11.3776   -5.4389 F           1 ZZL      -0.1759
     25 C19         7.1768  -10.8093   -6.9062 C.ar        1 ZZL      -0.0237
     26 F23         6.1333   -7.5183   -4.6745 F           1 ZZL      -0.1759
     27 C25         8.2474  -11.5562   -2.8710 C.ar        1 ZZL      -0.0267
     28 CL1         8.1165  -14.1635   -2.2090 Cl          1 ZZL      -0.0667
     29 C29        10.7020  -11.2040   -1.5796 C.ar        1 ZZL      -0.0425
     30 C30        10.1130  -10.0954   -2.2387 C.ar        1 ZZL       0.0182
     31 C31        10.8047   -8.8431   -2.1665 C.ar        1 ZZL       0.0633
     32 N32        12.1666   -8.8497   -2.1877 N.ar        1 ZZL      -0.2522
     33 C33        15.0504   -9.6987   -1.0463 C.ar        1 ZZL      -0.0347
     34 C34        15.8180  -10.8751   -1.0337 C.ar        1 ZZL      -0.0573
     35 H1          8.3360   -6.4513   -1.9850 H           1 ZZL       0.0550
     36 H2          8.2977   -8.0091   -1.1443 H           1 ZZL       0.0550
     37 H3          5.6609  -10.1250   -8.2019 H           1 ZZL       0.0651
     38 H4          5.1336   -8.1587   -6.8839 H           1 ZZL       0.0588
     39 H5         10.5496  -13.2511   -1.1119 H           1 ZZL       0.0679
     40 H6         17.0501  -10.6838   -4.1602 H           1 ZZL       0.0621
     41 H7         15.7702   -8.6517   -4.1557 H           1 ZZL       0.0543
     42 H8         14.7438   -6.8930   -2.2896 H           1 ZZL       0.2170
     43 H9         10.5379   -5.4975   -1.9805 H           1 ZZL       0.0835
     44 H10         7.4119  -11.6210   -7.4809 H           1 ZZL       0.0588
     45 H11         7.3267  -11.6995   -3.2889 H           1 ZZL       0.0697
     46 H12        11.5771  -11.1025   -1.0571 H           1 ZZL       0.0662
     47 H13        14.5077   -9.4399   -0.2153 H           1 ZZL       0.0543
     48 H14        15.8115  -11.4480   -0.1851 H           1 ZZL       0.0621
@<TRIPOS>BOND
     1    21     1   1
     2     1    22   1
     3     2     7   1
     4    22     2   2
     5     2    23   1
     6    23     3  ar
     7     3    24   1
     8     3    25  ar
     9     5     4  ar
    10    25     4  ar
    11     6     5  ar
    12    23     6  ar
    13     6    26   1
    14     7    27  ar
    15     7    30  ar
    16     8     9  ar
    17    27     8  ar
    18     8    28   1
    19     9    29  ar
    20    11    10  ar
    21    11    12  ar
    22    13    11   1
    23    14    13  ar
    24    13    34  ar
    25    15    14  ar
    26    16    15  ar
    27    17    16   1
    28    16    33  ar
    29    18    17   1
    30    19    18  ar
    31    18    32  ar
    32    20    19  ar
    33    20    21  ar
    34    21    31  ar
    35    29    30  ar
    36    30    31   1
    37    31    32  ar
    38    33    34  ar
    39     1    35   1
    40     1    36   1
    41     4    37   1
    42     5    38   1
    43     9    39   1
    44    14    40   1
    45    15    41   1
    46    17    42   1
    47    20    43   1
    48    25    44   1
    49    27    45   1
    50    29    46   1
    51    33    47   1
    52    34    48   1
@<TRIPOS>SUBSTRUCTURE
     1  ZZL      1

