@<TRIPOS>MOLECULE
2wtv_ligand_063
    48    52
SMALL
GAST_HUCK
****
This file was generated by PARSER (from files_GN.cpp)

@<TRIPOS>ATOM
      1 C13         4.2220  -12.7960   -2.7764 C.3         1 ZZL       0.0407
      2 C15         3.2835  -11.8677   -4.8140 C.2         1 ZZL       0.0550
      3 C17         1.5198  -10.5467   -5.8927 C.ar        1 ZZL       0.1522
      4 C20        -0.3320  -11.6502   -7.0336 C.ar        1 ZZL      -0.0589
      5 C21         0.2071  -12.9023   -6.6954 C.ar        1 ZZL      -0.0237
      6 C22         1.3935  -12.9831   -5.9392 C.ar        1 ZZL       0.1522
      7 C24         4.4377  -11.1606   -5.2147 C.ar        1 ZZL       0.0251
      8 C26         5.8183  -10.3723   -7.0996 C.ar        1 ZZL       0.0501
      9 C28         6.6728   -9.7132   -6.2049 C.ar        1 ZZL      -0.0388
     10 O01         7.9082   -2.0884   -1.4349 O.co2       1 ZZL      -0.5638
     11 C02         8.1838   -3.3106   -1.9451 C.2         1 ZZL       0.0552
     12 O03         9.1748   -3.3582   -2.8725 O.co2       1 ZZL      -0.5638
     13 C04         7.4884   -4.4785   -1.5437 C.ar        1 ZZL      -0.0018
     14 C05         6.2404   -4.4103   -0.8709 C.ar        1 ZZL      -0.0573
     15 C06         5.5785   -5.5801   -0.4475 C.ar        1 ZZL      -0.0347
     16 C07         6.1369   -6.8498   -0.6936 C.ar        1 ZZL       0.0671
     17 N08         5.5141   -7.9620   -0.2127 N.pl3       1 ZZL      -0.2432
     18 C09         5.2284   -9.1047   -0.8849 C.ar        1 ZZL       0.2053
     19 N10         4.7067  -10.1303   -0.1776 N.ar        1 ZZL      -0.2577
     20 C11         4.3991  -11.3185   -0.7520 C.ar        1 ZZL       0.0185
     21 C12         4.5878  -11.5131   -2.1369 C.ar        1 ZZL       0.0154
     22 N14         3.2468  -12.5726   -3.7336 N.2         1 ZZL      -0.3323
     23 C16         2.0822  -11.8052   -5.5384 C.ar        1 ZZL       0.0838
     24 F18         2.0622   -9.4155   -5.5166 F           1 ZZL      -0.1759
     25 C19         0.3265  -10.4749   -6.6370 C.ar        1 ZZL      -0.0237
     26 F23         1.8422  -14.1800   -5.6559 F           1 ZZL      -0.1759
     27 C25         4.7330  -11.1070   -6.6030 C.ar        1 ZZL      -0.0267
     28 CL1         6.0798  -10.2765   -8.7675 Cl          1 ZZL      -0.0667
     29 C29         6.4284   -9.7740   -4.8267 C.ar        1 ZZL      -0.0425
     30 C30         5.3115  -10.4737   -4.3071 C.ar        1 ZZL       0.0182
     31 C31         5.1090  -10.4279   -2.8876 C.ar        1 ZZL       0.0633
     32 N32         5.4142   -9.2764   -2.2189 N.ar        1 ZZL      -0.2522
     33 C33         7.3765   -6.9287   -1.3589 C.ar        1 ZZL      -0.0347
     34 C34         8.0454   -5.7631   -1.7744 C.ar        1 ZZL      -0.0573
     35 H1          3.8159  -13.5084   -2.0558 H           1 ZZL       0.0550
     36 H2          5.1018  -13.2500   -3.2362 H           1 ZZL       0.0550
     37 H3         -1.1995  -11.5934   -7.5705 H           1 ZZL       0.0651
     38 H4         -0.2688  -13.7545   -7.0058 H           1 ZZL       0.0588
     39 H5          7.4770   -9.1940   -6.5484 H           1 ZZL       0.0679
     40 H6          5.7986   -3.5060   -0.6902 H           1 ZZL       0.0621
     41 H7          4.6830   -5.5030    0.0464 H           1 ZZL       0.0543
     42 H8          5.1863   -7.9100    0.7000 H           1 ZZL       0.2170
     43 H9          4.0190  -12.0601   -0.1639 H           1 ZZL       0.0835
     44 H10        -0.0655   -9.5648   -6.8913 H           1 ZZL       0.0588
     45 H11         4.1630  -11.6244   -7.2771 H           1 ZZL       0.0697
     46 H12         7.0864   -9.2922   -4.2062 H           1 ZZL       0.0662
     47 H13         7.8301   -7.8366   -1.4948 H           1 ZZL       0.0543
     48 H14         8.9459   -5.8594   -2.2402 H           1 ZZL       0.0621
@<TRIPOS>BOND
     1    21     1   1
     2     1    22   1
     3     2     7   1
     4    22     2   2
     5     2    23   1
     6    23     3  ar
     7     3    24   1
     8     3    25  ar
     9     5     4  ar
    10    25     4  ar
    11     6     5  ar
    12    23     6  ar
    13     6    26   1
    14     7    27  ar
    15     7    30  ar
    16     8     9  ar
    17    27     8  ar
    18     8    28   1
    19     9    29  ar
    20    11    10  ar
    21    11    12  ar
    22    13    11   1
    23    14    13  ar
    24    13    34  ar
    25    15    14  ar
    26    16    15  ar
    27    17    16   1
    28    16    33  ar
    29    18    17   1
    30    19    18  ar
    31    18    32  ar
    32    20    19  ar
    33    20    21  ar
    34    21    31  ar
    35    29    30  ar
    36    30    31   1
    37    31    32  ar
    38    33    34  ar
    39     1    35   1
    40     1    36   1
    41     4    37   1
    42     5    38   1
    43     9    39   1
    44    14    40   1
    45    15    41   1
    46    17    42   1
    47    20    43   1
    48    25    44   1
    49    27    45   1
    50    29    46   1
    51    33    47   1
    52    34    48   1
@<TRIPOS>SUBSTRUCTURE
     1  ZZL      1

