@<TRIPOS>MOLECULE
2wtv_ligand_005
    48    52
SMALL
GAST_HUCK
****
This file was generated by PARSER (from files_GN.cpp)

@<TRIPOS>ATOM
      1 C13        11.7038  -14.7959  -10.2877 C.3         1 ZZL       0.0407
      2 C15        13.4935  -16.1536  -11.2338 C.2         1 ZZL       0.0550
      3 C17        14.4567  -16.5689  -13.4388 C.ar        1 ZZL       0.1522
      4 C20        16.5951  -15.5521  -14.0334 C.ar        1 ZZL      -0.0589
      5 C21        16.6887  -14.9852  -12.7479 C.ar        1 ZZL      -0.0237
      6 C22        15.6825  -15.2257  -11.7937 C.ar        1 ZZL       0.1522
      7 C24        13.3448  -17.3069  -10.4309 C.ar        1 ZZL       0.0251
      8 C26        13.4414  -19.7641  -10.2746 C.ar        1 ZZL       0.0501
      9 C28        12.9976  -19.7123   -8.9474 C.ar        1 ZZL      -0.0388
     10 O01        13.9214  -11.1066    0.1295 O.co2       1 ZZL      -0.5638
     11 C02        13.1519  -11.1452   -0.9906 C.2         1 ZZL       0.0552
     12 O03        12.4377  -10.0280   -1.2578 O.co2       1 ZZL      -0.5638
     13 C04        13.2501  -12.1868   -1.9302 C.ar        1 ZZL      -0.0018
     14 C05        14.5090  -12.6902   -2.3674 C.ar        1 ZZL      -0.0573
     15 C06        14.5882  -13.6509   -3.3774 C.ar        1 ZZL      -0.0347
     16 C07        13.4157  -14.1449   -4.0041 C.ar        1 ZZL       0.0671
     17 N08        13.5096  -15.0680   -4.9926 N.pl3       1 ZZL      -0.2432
     18 C09        13.0255  -14.9515   -6.2438 C.ar        1 ZZL       0.2053
     19 N10        12.4405  -13.8275   -6.7270 N.ar        1 ZZL      -0.2577
     20 C11        11.9982  -13.7613   -8.0155 C.ar        1 ZZL       0.0185
     21 C12        12.1361  -14.8728   -8.8808 C.ar        1 ZZL       0.0154
     22 N14        12.7841  -15.0746  -11.1067 N.2         1 ZZL      -0.3323
     23 C16        14.5443  -16.0132  -12.1320 C.ar        1 ZZL       0.0838
     24 F18        13.4196  -17.2769  -13.8028 F           1 ZZL      -0.1759
     25 C19        15.4801  -16.3432  -14.3764 C.ar        1 ZZL      -0.0237
     26 F23        15.8074  -14.6705  -10.6111 F           1 ZZL      -0.1759
     27 C25        13.6017  -18.5803  -11.0115 C.ar        1 ZZL      -0.0267
     28 CL1        13.7708  -21.2694  -10.9680 Cl          1 ZZL      -0.0667
     29 C29        12.7332  -18.4782   -8.3473 C.ar        1 ZZL      -0.0425
     30 C30        12.9238  -17.2616   -9.0627 C.ar        1 ZZL       0.0182
     31 C31        12.7058  -16.0521   -8.3286 C.ar        1 ZZL       0.0633
     32 N32        13.1310  -16.0168   -7.0394 N.ar        1 ZZL      -0.2522
     33 C33        12.1651  -13.6811   -3.5344 C.ar        1 ZZL      -0.0347
     34 C34        12.0787  -12.7343   -2.5224 C.ar        1 ZZL      -0.0573
     35 H1         11.3438  -13.7936  -10.5442 H           1 ZZL       0.0550
     36 H2         10.8969  -15.5106  -10.4710 H           1 ZZL       0.0550
     37 H3         17.3192  -15.3739  -14.7277 H           1 ZZL       0.0651
     38 H4         17.4897  -14.3957  -12.5144 H           1 ZZL       0.0588
     39 H5         12.8596  -20.5799   -8.4038 H           1 ZZL       0.0679
     40 H6         15.3764  -12.3209   -1.9702 H           1 ZZL       0.0621
     41 H7         15.5099  -13.9780   -3.7020 H           1 ZZL       0.0543
     42 H8         13.9786  -15.8991   -4.7735 H           1 ZZL       0.2170
     43 H9         11.6039  -12.8835   -8.3487 H           1 ZZL       0.0835
     44 H10        15.4083  -16.7445  -15.3165 H           1 ZZL       0.0588
     45 H11        13.9080  -18.6462  -11.9825 H           1 ZZL       0.0697
     46 H12        12.4105  -18.4680   -7.3751 H           1 ZZL       0.0662
     47 H13        11.3003  -14.1003   -3.9017 H           1 ZZL       0.0543
     48 H14        11.1476  -12.4481   -2.1926 H           1 ZZL       0.0621
@<TRIPOS>BOND
     1    21     1   1
     2     1    22   1
     3     2     7   1
     4    22     2   2
     5     2    23   1
     6    23     3  ar
     7     3    24   1
     8     3    25  ar
     9     5     4  ar
    10    25     4  ar
    11     6     5  ar
    12    23     6  ar
    13     6    26   1
    14     7    27  ar
    15     7    30  ar
    16     8     9  ar
    17    27     8  ar
    18     8    28   1
    19     9    29  ar
    20    11    10  ar
    21    11    12  ar
    22    13    11   1
    23    14    13  ar
    24    13    34  ar
    25    15    14  ar
    26    16    15  ar
    27    17    16   1
    28    16    33  ar
    29    18    17   1
    30    19    18  ar
    31    18    32  ar
    32    20    19  ar
    33    20    21  ar
    34    21    31  ar
    35    29    30  ar
    36    30    31   1
    37    31    32  ar
    38    33    34  ar
    39     1    35   1
    40     1    36   1
    41     4    37   1
    42     5    38   1
    43     9    39   1
    44    14    40   1
    45    15    41   1
    46    17    42   1
    47    20    43   1
    48    25    44   1
    49    27    45   1
    50    29    46   1
    51    33    47   1
    52    34    48   1
@<TRIPOS>SUBSTRUCTURE
     1  ZZL      1

