@<TRIPOS>MOLECULE
2wtv_ligand_021
    48    52
SMALL
GAST_HUCK
****
This file was generated by PARSER (from files_GN.cpp)

@<TRIPOS>ATOM
      1 C13         9.5519   -4.8920    1.3614 C.3         1 ZZL       0.0407
      2 C15        10.4857   -4.8095   -0.8874 C.2         1 ZZL       0.0550
      3 C17        12.6713   -3.8477   -1.4915 C.ar        1 ZZL       0.1522
      4 C20        12.8534   -2.3124   -3.3773 C.ar        1 ZZL      -0.0589
      5 C21        11.4728   -2.4290   -3.6038 C.ar        1 ZZL      -0.0237
      6 C22        10.6849   -3.2569   -2.7806 C.ar        1 ZZL       0.1522
      7 C24         9.9112   -6.0153   -1.3508 C.ar        1 ZZL       0.0251
      8 C26        10.1834   -8.0496   -2.7255 C.ar        1 ZZL       0.0501
      9 C28         8.8807   -8.4474   -2.3983 C.ar        1 ZZL      -0.0388
     10 O01         2.0613   -8.2146   -5.3156 O.co2       1 ZZL      -0.5638
     11 C02         1.4157   -7.4250   -4.4225 C.2         1 ZZL       0.0552
     12 O03         0.0698   -7.3272   -4.5671 O.co2       1 ZZL      -0.5638
     13 C04         2.1003   -6.8086   -3.3457 C.ar        1 ZZL      -0.0018
     14 C05         3.3933   -6.2618   -3.5278 C.ar        1 ZZL      -0.0573
     15 C06         4.0793   -5.6540   -2.4566 C.ar        1 ZZL      -0.0347
     16 C07         3.5059   -5.5912   -1.1653 C.ar        1 ZZL       0.0671
     17 N08         4.1168   -4.9953   -0.0999 N.pl3       1 ZZL      -0.2432
     18 C09         5.4346   -4.9899    0.2264 C.ar        1 ZZL       0.2053
     19 N10         5.8345   -4.3109    1.3300 N.ar        1 ZZL      -0.2577
     20 C11         7.1350   -4.2737    1.7205 C.ar        1 ZZL       0.0185
     21 C12         8.1279   -4.9528    0.9769 C.ar        1 ZZL       0.0154
     22 N14        10.2974   -4.3686    0.3091 N.2         1 ZZL      -0.3323
     23 C16        11.2718   -3.9861   -1.7102 C.ar        1 ZZL       0.0838
     24 F18        13.2898   -4.5041   -0.5438 F           1 ZZL      -0.1759
     25 C19        13.4500   -3.0188   -2.3218 C.ar        1 ZZL      -0.0237
     26 F23         9.3987   -3.2967   -3.0240 F           1 ZZL      -0.1759
     27 C25        10.6869   -6.8449   -2.2044 C.ar        1 ZZL      -0.0267
     28 CL1        11.1337   -9.0128   -3.7421 Cl          1 ZZL      -0.0667
     29 C29         8.0948   -7.6511   -1.5530 C.ar        1 ZZL      -0.0425
     30 C30         8.5857   -6.4359   -1.0108 C.ar        1 ZZL       0.0182
     31 C31         7.7038   -5.6829   -0.1677 C.ar        1 ZZL       0.0633
     32 N32         6.3757   -5.6643   -0.4769 N.ar        1 ZZL      -0.2522
     33 C33         2.2088   -6.1256   -0.9885 C.ar        1 ZZL      -0.0347
     34 C34         1.5188   -6.7236   -2.0612 C.ar        1 ZZL      -0.0573
     35 H1          9.9148   -5.8920    1.6157 H           1 ZZL       0.0550
     36 H2          9.7102   -4.2501    2.2286 H           1 ZZL       0.0550
     37 H3         13.4211   -1.7117   -3.9779 H           1 ZZL       0.0651
     38 H4         11.0443   -1.9038   -4.3682 H           1 ZZL       0.0588
     39 H5          8.4971   -9.3215   -2.7685 H           1 ZZL       0.0679
     40 H6          3.8450   -6.2759   -4.4483 H           1 ZZL       0.0621
     41 H7          4.9970   -5.2308   -2.6371 H           1 ZZL       0.0543
     42 H8          3.5243   -4.5575    0.5448 H           1 ZZL       0.2170
     43 H9          7.3758   -3.7452    2.5594 H           1 ZZL       0.0835
     44 H10        14.4560   -2.9304   -2.1630 H           1 ZZL       0.0588
     45 H11        11.6461   -6.5792   -2.4542 H           1 ZZL       0.0697
     46 H12         7.1553   -7.9871   -1.3238 H           1 ZZL       0.0662
     47 H13         1.7597   -6.0915   -0.0715 H           1 ZZL       0.0543
     48 H14         0.5850   -7.1007   -1.8858 H           1 ZZL       0.0621
@<TRIPOS>BOND
     1    21     1   1
     2     1    22   1
     3     2     7   1
     4    22     2   2
     5     2    23   1
     6    23     3  ar
     7     3    24   1
     8     3    25  ar
     9     5     4  ar
    10    25     4  ar
    11     6     5  ar
    12    23     6  ar
    13     6    26   1
    14     7    27  ar
    15     7    30  ar
    16     8     9  ar
    17    27     8  ar
    18     8    28   1
    19     9    29  ar
    20    11    10  ar
    21    11    12  ar
    22    13    11   1
    23    14    13  ar
    24    13    34  ar
    25    15    14  ar
    26    16    15  ar
    27    17    16   1
    28    16    33  ar
    29    18    17   1
    30    19    18  ar
    31    18    32  ar
    32    20    19  ar
    33    20    21  ar
    34    21    31  ar
    35    29    30  ar
    36    30    31   1
    37    31    32  ar
    38    33    34  ar
    39     1    35   1
    40     1    36   1
    41     4    37   1
    42     5    38   1
    43     9    39   1
    44    14    40   1
    45    15    41   1
    46    17    42   1
    47    20    43   1
    48    25    44   1
    49    27    45   1
    50    29    46   1
    51    33    47   1
    52    34    48   1
@<TRIPOS>SUBSTRUCTURE
     1  ZZL      1

