@<TRIPOS>MOLECULE
2wtv_ligand_034
    48    52
SMALL
GAST_HUCK
****
This file was generated by PARSER (from files_GN.cpp)

@<TRIPOS>ATOM
      1 C13         8.6961   -8.3056   -2.4640 C.3         1 ZZL       0.0407
      2 C15         8.9397  -10.3643   -3.7997 C.2         1 ZZL       0.0550
      3 C17        10.9813  -10.3690   -5.2561 C.ar        1 ZZL       0.1522
      4 C20        11.3268  -12.0937   -6.9456 C.ar        1 ZZL      -0.0589
      5 C21        10.0915  -12.6601   -6.6002 C.ar        1 ZZL      -0.0237
      6 C22         9.2833  -12.0581   -5.6130 C.ar        1 ZZL       0.1522
      7 C24         7.8941  -11.0374   -3.1231 C.ar        1 ZZL       0.0251
      8 C26         7.0892  -13.1345   -2.1054 C.ar        1 ZZL       0.0501
      9 C28         5.8441  -12.5431   -1.8502 C.ar        1 ZZL      -0.0388
     10 O01        -1.4907  -11.1327   -3.7433 O.co2       1 ZZL      -0.5638
     11 C02        -0.7951  -10.6241   -4.7861 C.2         1 ZZL       0.0552
     12 O03        -1.2025  -10.9784   -6.0264 O.co2       1 ZZL      -0.5638
     13 C04         0.2909   -9.7361   -4.5935 C.ar        1 ZZL      -0.0018
     14 C05         0.4226   -9.0082   -3.3865 C.ar        1 ZZL      -0.0573
     15 C06         1.4754   -8.0920   -3.2060 C.ar        1 ZZL      -0.0347
     16 C07         2.4425   -7.9201   -4.2121 C.ar        1 ZZL       0.0671
     17 N08         3.4549   -7.0432   -4.0124 N.pl3       1 ZZL      -0.2432
     18 C09         4.7005   -7.3985   -3.6348 C.ar        1 ZZL       0.2053
     19 N10         5.5963   -6.4111   -3.4011 N.ar        1 ZZL      -0.2577
     20 C11         6.8635   -6.6716   -3.0138 C.ar        1 ZZL       0.0185
     21 C12         7.2941   -8.0035   -2.8319 C.ar        1 ZZL       0.0154
     22 N14         9.2349   -9.1664   -3.4188 N.2         1 ZZL      -0.3323
     23 C16         9.7222  -10.9246   -4.8587 C.ar        1 ZZL       0.0838
     24 F18        11.5002   -9.3126   -4.6859 F           1 ZZL      -0.1759
     25 C19        11.7573  -10.9321   -6.2895 C.ar        1 ZZL      -0.0237
     26 F23         8.0880  -12.5650   -5.4722 F           1 ZZL      -0.1759
     27 C25         8.1103  -12.3774   -2.6983 C.ar        1 ZZL      -0.0267
     28 CL1         7.3363  -14.7601   -1.7110 Cl          1 ZZL      -0.0667
     29 C29         5.6270  -11.2019   -2.1939 C.ar        1 ZZL      -0.0425
     30 C30         6.6376  -10.4235   -2.8178 C.ar        1 ZZL       0.0182
     31 C31         6.3475   -9.0404   -3.0499 C.ar        1 ZZL       0.0633
     32 N32         5.0937   -8.6858   -3.4418 N.ar        1 ZZL      -0.2522
     33 C33         2.3380   -8.6520   -5.4113 C.ar        1 ZZL      -0.0347
     34 C34         1.2618   -9.5400   -5.6054 C.ar        1 ZZL      -0.0573
     35 H1          8.7376   -8.7626   -1.4734 H           1 ZZL       0.0550
     36 H2          9.3114   -7.4010   -2.4349 H           1 ZZL       0.0550
     37 H3         11.9051  -12.5114   -7.6795 H           1 ZZL       0.0651
     38 H4          9.7727  -13.5016   -7.0913 H           1 ZZL       0.0588
     39 H5          5.0898  -13.0854   -1.4198 H           1 ZZL       0.0679
     40 H6         -0.2536   -9.1211   -2.6289 H           1 ZZL       0.0621
     41 H7          1.5376   -7.5647   -2.3294 H           1 ZZL       0.0543
     42 H8          3.2403   -6.0986   -4.0329 H           1 ZZL       0.2170
     43 H9          7.4935   -5.8844   -2.8563 H           1 ZZL       0.0835
     44 H10        12.6463  -10.5045   -6.5651 H           1 ZZL       0.0588
     45 H11         9.0215  -12.8181   -2.8430 H           1 ZZL       0.0697
     46 H12         4.7118  -10.7995   -1.9681 H           1 ZZL       0.0662
     47 H13         3.0350   -8.5355   -6.1510 H           1 ZZL       0.0543
     48 H14         1.2060  -10.0505   -6.4906 H           1 ZZL       0.0621
@<TRIPOS>BOND
     1    21     1   1
     2     1    22   1
     3     2     7   1
     4    22     2   2
     5     2    23   1
     6    23     3  ar
     7     3    24   1
     8     3    25  ar
     9     5     4  ar
    10    25     4  ar
    11     6     5  ar
    12    23     6  ar
    13     6    26   1
    14     7    27  ar
    15     7    30  ar
    16     8     9  ar
    17    27     8  ar
    18     8    28   1
    19     9    29  ar
    20    11    10  ar
    21    11    12  ar
    22    13    11   1
    23    14    13  ar
    24    13    34  ar
    25    15    14  ar
    26    16    15  ar
    27    17    16   1
    28    16    33  ar
    29    18    17   1
    30    19    18  ar
    31    18    32  ar
    32    20    19  ar
    33    20    21  ar
    34    21    31  ar
    35    29    30  ar
    36    30    31   1
    37    31    32  ar
    38    33    34  ar
    39     1    35   1
    40     1    36   1
    41     4    37   1
    42     5    38   1
    43     9    39   1
    44    14    40   1
    45    15    41   1
    46    17    42   1
    47    20    43   1
    48    25    44   1
    49    27    45   1
    50    29    46   1
    51    33    47   1
    52    34    48   1
@<TRIPOS>SUBSTRUCTURE
     1  ZZL      1

