@<TRIPOS>MOLECULE
2wtv_ligand_015
    48    52
SMALL
GAST_HUCK
****
This file was generated by PARSER (from files_GN.cpp)

@<TRIPOS>ATOM
      1 C13         4.1382  -23.1020   -3.7181 C.3         1 ZZL       0.0407
      2 C15         2.6131  -22.6595   -5.5540 C.2         1 ZZL       0.0550
      3 C17         3.0136  -22.2538   -7.9105 C.ar        1 ZZL       0.1522
      4 C20         1.9599  -23.6691   -9.5943 C.ar        1 ZZL      -0.0589
      5 C21         1.3708  -24.4405   -8.5778 C.ar        1 ZZL      -0.0237
      6 C22         1.6166  -24.1350   -7.2244 C.ar        1 ZZL       0.1522
      7 C24         1.8179  -21.6777   -4.9135 C.ar        1 ZZL       0.0251
      8 C26        -0.4326  -20.6945   -4.6056 C.ar        1 ZZL       0.0501
      9 C28         0.0883  -19.8137   -3.6439 C.ar        1 ZZL      -0.0388
     10 O01         3.1301  -12.1528   -2.3542 O.co2       1 ZZL      -0.5638
     11 C02         3.4752  -12.8497   -3.4683 C.2         1 ZZL       0.0552
     12 O03         3.0853  -12.3583   -4.6757 O.co2       1 ZZL      -0.5638
     13 C04         4.0902  -14.0992   -3.3609 C.ar        1 ZZL      -0.0018
     14 C05         3.6962  -15.1715   -4.1882 C.ar        1 ZZL      -0.0573
     15 C06         4.3455  -16.4164   -4.0988 C.ar        1 ZZL      -0.0347
     16 C07         5.3720  -16.6450   -3.1529 C.ar        1 ZZL       0.0671
     17 N08         6.0351  -17.8353   -3.0180 N.pl3       1 ZZL      -0.2432
     18 C09         5.5532  -19.0958   -3.1635 C.ar        1 ZZL       0.2053
     19 N10         6.3909  -20.1531   -3.0288 N.ar        1 ZZL      -0.2577
     20 C11         5.9702  -21.4397   -3.1904 C.ar        1 ZZL       0.0185
     21 C12         4.6241  -21.7262   -3.5138 C.ar        1 ZZL       0.0154
     22 N14         3.6196  -23.2445   -5.0021 N.2         1 ZZL      -0.3323
     23 C16         2.4168  -23.0191   -6.8798 C.ar        1 ZZL       0.0838
     24 F18         3.7576  -21.2085   -7.6435 F           1 ZZL      -0.1759
     25 C19         2.7977  -22.5923   -9.2613 C.ar        1 ZZL      -0.0237
     26 F23         1.0589  -24.8875   -6.3100 F           1 ZZL      -0.1759
     27 C25         0.4315  -21.6169   -5.2236 C.ar        1 ZZL      -0.0267
     28 CL1        -2.0751  -20.6523   -4.9884 Cl          1 ZZL      -0.0667
     29 C29         1.4563  -19.8350   -3.3428 C.ar        1 ZZL      -0.0425
     30 C30         2.3429  -20.7406   -3.9711 C.ar        1 ZZL       0.0182
     31 C31         3.7333  -20.6275   -3.6382 C.ar        1 ZZL       0.0633
     32 N32         4.2519  -19.3726   -3.4462 N.ar        1 ZZL      -0.2522
     33 C33         5.7776  -15.5532   -2.3506 C.ar        1 ZZL      -0.0347
     34 C34         5.1321  -14.3008   -2.4307 C.ar        1 ZZL      -0.0573
     35 H1          3.3571  -23.3390   -2.9830 H           1 ZZL       0.0550
     36 H2          4.9309  -23.8388   -3.5979 H           1 ZZL       0.0550
     37 H3          1.7724  -23.8864  -10.5760 H           1 ZZL       0.0651
     38 H4          0.7545  -25.2193   -8.8298 H           1 ZZL       0.0588
     39 H5         -0.5274  -19.1446   -3.1725 H           1 ZZL       0.0679
     40 H6          2.9332  -15.0597   -4.8589 H           1 ZZL       0.0621
     41 H7          4.0811  -17.1517   -4.7601 H           1 ZZL       0.0543
     42 H8          6.9651  -17.7671   -2.7349 H           1 ZZL       0.2170
     43 H9          6.6520  -22.1913   -3.0906 H           1 ZZL       0.0835
     44 H10         3.2359  -22.0477  -10.0084 H           1 ZZL       0.0588
     45 H11         0.0158  -22.2659   -5.8990 H           1 ZZL       0.0697
     46 H12         1.7926  -19.1720   -2.6387 H           1 ZZL       0.0662
     47 H13         6.5503  -15.6598   -1.6774 H           1 ZZL       0.0543
     48 H14         5.4520  -13.5343   -1.8342 H           1 ZZL       0.0621
@<TRIPOS>BOND
     1    21     1   1
     2     1    22   1
     3     2     7   1
     4    22     2   2
     5     2    23   1
     6    23     3  ar
     7     3    24   1
     8     3    25  ar
     9     5     4  ar
    10    25     4  ar
    11     6     5  ar
    12    23     6  ar
    13     6    26   1
    14     7    27  ar
    15     7    30  ar
    16     8     9  ar
    17    27     8  ar
    18     8    28   1
    19     9    29  ar
    20    11    10  ar
    21    11    12  ar
    22    13    11   1
    23    14    13  ar
    24    13    34  ar
    25    15    14  ar
    26    16    15  ar
    27    17    16   1
    28    16    33  ar
    29    18    17   1
    30    19    18  ar
    31    18    32  ar
    32    20    19  ar
    33    20    21  ar
    34    21    31  ar
    35    29    30  ar
    36    30    31   1
    37    31    32  ar
    38    33    34  ar
    39     1    35   1
    40     1    36   1
    41     4    37   1
    42     5    38   1
    43     9    39   1
    44    14    40   1
    45    15    41   1
    46    17    42   1
    47    20    43   1
    48    25    44   1
    49    27    45   1
    50    29    46   1
    51    33    47   1
    52    34    48   1
@<TRIPOS>SUBSTRUCTURE
     1  ZZL      1

