@<TRIPOS>MOLECULE
2wtv_ligand_075
    48    52
SMALL
GAST_HUCK
****
This file was generated by PARSER (from files_GN.cpp)

@<TRIPOS>ATOM
      1 C13         2.0457  -12.6051   -4.6960 C.3         1 ZZL       0.0407
      2 C15         3.8006  -10.9214   -4.6115 C.2         1 ZZL       0.0550
      3 C17         4.2792   -8.6285   -5.3755 C.ar        1 ZZL       0.1522
      4 C20         5.9324   -8.2606   -7.1235 C.ar        1 ZZL      -0.0589
      5 C21         6.0327   -9.6476   -7.3205 C.ar        1 ZZL      -0.0237
      6 C22         5.3146  -10.5307   -6.4910 C.ar        1 ZZL       0.1522
      7 C24         4.1038  -11.0432   -3.2280 C.ar        1 ZZL       0.0251
      8 C26         4.6830   -9.9043   -1.1042 C.ar        1 ZZL       0.0501
      9 C28         4.6054  -11.1189   -0.4161 C.ar        1 ZZL      -0.0388
     10 O01         4.4141  -22.4911   -5.5656 O.co2       1 ZZL      -0.5638
     11 C02         4.5565  -22.1891   -4.2554 C.2         1 ZZL       0.0552
     12 O03         4.5928  -23.2062   -3.3650 O.co2       1 ZZL      -0.5638
     13 C04         4.6780  -20.8527   -3.8239 C.ar        1 ZZL      -0.0018
     14 C05         4.0319  -20.4163   -2.6415 C.ar        1 ZZL      -0.0573
     15 C06         4.1498  -19.0836   -2.2110 C.ar        1 ZZL      -0.0347
     16 C07         4.9147  -18.1675   -2.9590 C.ar        1 ZZL       0.0671
     17 N08         4.9961  -16.8780   -2.5648 N.pl3       1 ZZL      -0.2432
     18 C09         4.2893  -15.8810   -3.1342 C.ar        1 ZZL       0.2053
     19 N10         3.3885  -16.0701   -4.1333 N.ar        1 ZZL      -0.2577
     20 C11         2.6685  -15.0498   -4.6541 C.ar        1 ZZL       0.0185
     21 C12         2.8326  -13.7385   -4.1553 C.ar        1 ZZL       0.0154
     22 N14         2.9011  -11.6338   -5.1982 N.2         1 ZZL      -0.3323
     23 C16         4.4560  -10.0347   -5.4738 C.ar        1 ZZL       0.0838
     24 F18         3.4341   -8.1138   -4.5214 F           1 ZZL      -0.1759
     25 C19         5.0591   -7.7504   -6.1510 C.ar        1 ZZL      -0.0237
     26 F23         5.4661  -11.8140   -6.6910 F           1 ZZL      -0.1759
     27 C25         4.4555   -9.8820   -2.4872 C.ar        1 ZZL      -0.0267
     28 CL1         4.9713   -8.4591   -0.2687 Cl          1 ZZL      -0.0667
     29 C29         4.3076  -12.2955   -1.1102 C.ar        1 ZZL      -0.0425
     30 C30         4.0508  -12.2854   -2.5086 C.ar        1 ZZL       0.0182
     31 C31         3.7789  -13.5455   -3.1159 C.ar        1 ZZL       0.0633
     32 N32         4.4716  -14.6264   -2.6656 N.ar        1 ZZL      -0.2522
     33 C33         5.5677  -18.5925   -4.1335 C.ar        1 ZZL      -0.0347
     34 C34         5.4481  -19.9244   -4.5648 C.ar        1 ZZL      -0.0573
     35 H1          1.4151  -12.1852   -3.9061 H           1 ZZL       0.0550
     36 H2          1.3954  -12.9227   -5.5101 H           1 ZZL       0.0550
     37 H3          6.4591   -7.6153   -7.7140 H           1 ZZL       0.0651
     38 H4          6.6298  -10.0095   -8.0690 H           1 ZZL       0.0588
     39 H5          4.7449  -11.1525    0.5960 H           1 ZZL       0.0679
     40 H6          3.4476  -21.0579   -2.0978 H           1 ZZL       0.0621
     41 H7          3.6550  -18.7775   -1.3683 H           1 ZZL       0.0543
     42 H8          5.5428  -16.6693   -1.7893 H           1 ZZL       0.2170
     43 H9          2.0047  -15.2512   -5.4029 H           1 ZZL       0.0835
     44 H10         4.9816   -6.7376   -6.0253 H           1 ZZL       0.0588
     45 H11         4.4948   -8.9659   -2.9560 H           1 ZZL       0.0697
     46 H12         4.2616  -13.1586   -0.5612 H           1 ZZL       0.0662
     47 H13         6.1326  -17.9349   -4.6771 H           1 ZZL       0.0543
     48 H14         5.9444  -20.2118   -5.4125 H           1 ZZL       0.0621
@<TRIPOS>BOND
     1    21     1   1
     2     1    22   1
     3     2     7   1
     4    22     2   2
     5     2    23   1
     6    23     3  ar
     7     3    24   1
     8     3    25  ar
     9     5     4  ar
    10    25     4  ar
    11     6     5  ar
    12    23     6  ar
    13     6    26   1
    14     7    27  ar
    15     7    30  ar
    16     8     9  ar
    17    27     8  ar
    18     8    28   1
    19     9    29  ar
    20    11    10  ar
    21    11    12  ar
    22    13    11   1
    23    14    13  ar
    24    13    34  ar
    25    15    14  ar
    26    16    15  ar
    27    17    16   1
    28    16    33  ar
    29    18    17   1
    30    19    18  ar
    31    18    32  ar
    32    20    19  ar
    33    20    21  ar
    34    21    31  ar
    35    29    30  ar
    36    30    31   1
    37    31    32  ar
    38    33    34  ar
    39     1    35   1
    40     1    36   1
    41     4    37   1
    42     5    38   1
    43     9    39   1
    44    14    40   1
    45    15    41   1
    46    17    42   1
    47    20    43   1
    48    25    44   1
    49    27    45   1
    50    29    46   1
    51    33    47   1
    52    34    48   1
@<TRIPOS>SUBSTRUCTURE
     1  ZZL      1

