@<TRIPOS>MOLECULE
2wtv_ligand_030
    48    52
SMALL
GAST_HUCK
****
This file was generated by PARSER (from files_GN.cpp)

@<TRIPOS>ATOM
      1 C13         9.1654  -10.6367   -5.4471 C.3         1 ZZL       0.0407
      2 C15        11.5398  -10.1050   -5.4647 C.2         1 ZZL       0.0550
      3 C17        12.7864  -10.3814   -7.5731 C.ar        1 ZZL       0.1522
      4 C20        14.6167   -8.8662   -8.1197 C.ar        1 ZZL      -0.0589
      5 C21        14.4052   -8.1783   -6.9138 C.ar        1 ZZL      -0.0237
      6 C22        13.3855   -8.5856   -6.0320 C.ar        1 ZZL       0.1522
      7 C24        11.7700  -10.3347   -4.0874 C.ar        1 ZZL       0.0251
      8 C26        13.3006  -11.2275   -2.3667 C.ar        1 ZZL       0.0501
      9 C28        12.3880  -10.8703   -1.3651 C.ar        1 ZZL      -0.0388
     10 O01        10.7250   -6.0089    3.8009 O.co2       1 ZZL      -0.5638
     11 C02         9.7903   -5.2388    3.2069 C.2         1 ZZL       0.0552
     12 O03         9.4487   -4.0496    3.7410 O.co2       1 ZZL      -0.5638
     13 C04         9.2209   -5.6466    1.9978 C.ar        1 ZZL      -0.0018
     14 C05        10.0076   -5.7082    0.8270 C.ar        1 ZZL      -0.0573
     15 C06         9.4279   -6.1404   -0.3839 C.ar        1 ZZL      -0.0347
     16 C07         8.0634   -6.5089   -0.4437 C.ar        1 ZZL       0.0671
     17 N08         7.4482   -6.9212   -1.5916 N.pl3       1 ZZL      -0.2432
     18 C09         7.9215   -7.7941   -2.5130 C.ar        1 ZZL       0.2053
     19 N10         7.1330   -8.0828   -3.5753 N.ar        1 ZZL      -0.2577
     20 C11         7.5100   -8.9738   -4.5244 C.ar        1 ZZL       0.0185
     21 C12         8.7476   -9.6466   -4.4256 C.ar        1 ZZL       0.0154
     22 N14        10.3782  -10.2570   -6.0013 N.2         1 ZZL      -0.3323
     23 C16        12.5554   -9.6994   -6.3441 C.ar        1 ZZL       0.0838
     24 F18        12.0926  -11.4362   -7.9178 F           1 ZZL      -0.1759
     25 C19        13.8071   -9.9657   -8.4471 C.ar        1 ZZL      -0.0237
     26 F23        13.2212   -7.8844   -4.9376 F           1 ZZL      -0.1759
     27 C25        12.9884  -10.9611   -3.7118 C.ar        1 ZZL      -0.0267
     28 CL1        14.7577  -11.9851   -1.9606 Cl          1 ZZL      -0.0667
     29 C29        11.1752  -10.2565   -1.7059 C.ar        1 ZZL      -0.0425
     30 C30        10.8366   -9.9780   -3.0587 C.ar        1 ZZL       0.0182
     31 C31         9.5717   -9.3484   -3.3062 C.ar        1 ZZL       0.0633
     32 N32         9.1148   -8.4322   -2.4070 N.ar        1 ZZL      -0.2522
     33 C33         7.2829   -6.4027    0.7278 C.ar        1 ZZL      -0.0347
     34 C34         7.8584   -5.9850    1.9426 C.ar        1 ZZL      -0.0573
     35 H1          8.4442  -10.7037   -6.2636 H           1 ZZL       0.0550
     36 H2          9.2514  -11.6278   -4.9945 H           1 ZZL       0.0550
     37 H3         15.3566   -8.5683   -8.7576 H           1 ZZL       0.0651
     38 H4         14.9976   -7.3744   -6.6838 H           1 ZZL       0.0588
     39 H5         12.5949  -11.0658   -0.3816 H           1 ZZL       0.0679
     40 H6         10.9943   -5.4381    0.8465 H           1 ZZL       0.0621
     41 H7         10.0057   -6.1449   -1.2316 H           1 ZZL       0.0543
     42 H8          6.5296   -6.6357   -1.7092 H           1 ZZL       0.2170
     43 H9          6.8801   -9.1448   -5.3107 H           1 ZZL       0.0835
     44 H10        13.9719  -10.4624   -9.3255 H           1 ZZL       0.0588
     45 H11        13.6630  -11.2505   -4.4246 H           1 ZZL       0.0697
     46 H12        10.5284  -10.0274   -0.9447 H           1 ZZL       0.0662
     47 H13         6.2922   -6.6718    0.7175 H           1 ZZL       0.0543
     48 H14         7.2819   -5.9482    2.7888 H           1 ZZL       0.0621
@<TRIPOS>BOND
     1    21     1   1
     2     1    22   1
     3     2     7   1
     4    22     2   2
     5     2    23   1
     6    23     3  ar
     7     3    24   1
     8     3    25  ar
     9     5     4  ar
    10    25     4  ar
    11     6     5  ar
    12    23     6  ar
    13     6    26   1
    14     7    27  ar
    15     7    30  ar
    16     8     9  ar
    17    27     8  ar
    18     8    28   1
    19     9    29  ar
    20    11    10  ar
    21    11    12  ar
    22    13    11   1
    23    14    13  ar
    24    13    34  ar
    25    15    14  ar
    26    16    15  ar
    27    17    16   1
    28    16    33  ar
    29    18    17   1
    30    19    18  ar
    31    18    32  ar
    32    20    19  ar
    33    20    21  ar
    34    21    31  ar
    35    29    30  ar
    36    30    31   1
    37    31    32  ar
    38    33    34  ar
    39     1    35   1
    40     1    36   1
    41     4    37   1
    42     5    38   1
    43     9    39   1
    44    14    40   1
    45    15    41   1
    46    17    42   1
    47    20    43   1
    48    25    44   1
    49    27    45   1
    50    29    46   1
    51    33    47   1
    52    34    48   1
@<TRIPOS>SUBSTRUCTURE
     1  ZZL      1

