@<TRIPOS>MOLECULE
2wtv_ligand_046
    48    52
SMALL
GAST_HUCK
****
This file was generated by PARSER (from files_GN.cpp)

@<TRIPOS>ATOM
      1 C13         7.3423   -8.8664   -3.8774 C.3         1 ZZL       0.0407
      2 C15         5.2598  -10.0790   -3.6283 C.2         1 ZZL       0.0550
      3 C17         4.5537  -11.5435   -1.8146 C.ar        1 ZZL       0.1522
      4 C20         3.8892  -13.8405   -2.2889 C.ar        1 ZZL      -0.0589
      5 C21         4.1279  -13.6297   -3.6595 C.ar        1 ZZL      -0.0237
      6 C22         4.5925  -12.3800   -4.1098 C.ar        1 ZZL       0.1522
      7 C24         4.3713   -9.0471   -4.0080 C.ar        1 ZZL       0.0251
      8 C26         2.2557   -8.4350   -5.1302 C.ar        1 ZZL       0.0501
      9 C28         2.4839   -7.0875   -4.8358 C.ar        1 ZZL      -0.0388
     10 O01         9.1658   -0.3268    3.2856 O.co2       1 ZZL      -0.5638
     11 C02         9.2754   -1.6765    3.1530 C.2         1 ZZL       0.0552
     12 O03        10.1302   -2.2928    4.0108 O.co2       1 ZZL      -0.5638
     13 C04         8.5066   -2.3973    2.2185 C.ar        1 ZZL      -0.0018
     14 C05         8.1102   -3.7377    2.4737 C.ar        1 ZZL      -0.0573
     15 C06         7.3204   -4.4415    1.5579 C.ar        1 ZZL      -0.0347
     16 C07         6.9121   -3.8517    0.3331 C.ar        1 ZZL       0.0671
     17 N08         6.1295   -4.4929   -0.5677 N.pl3       1 ZZL      -0.2432
     18 C09         6.4462   -5.5922   -1.2892 C.ar        1 ZZL       0.2053
     19 N10         7.6736   -6.1663   -1.2776 N.ar        1 ZZL      -0.2577
     20 C11         7.9768   -7.2286   -2.0701 C.ar        1 ZZL       0.0185
     21 C12         7.0069   -7.7509   -2.9550 C.ar        1 ZZL       0.0154
     22 N14         6.5411   -9.9567   -3.5865 N.2         1 ZZL      -0.3323
     23 C16         4.8071  -11.3181   -3.1934 C.ar        1 ZZL       0.0838
     24 F18         4.7608  -10.6065   -0.9229 F           1 ZZL      -0.1759
     25 C19         4.0964  -12.7962   -1.3687 C.ar        1 ZZL      -0.0237
     26 F23         4.8060  -12.2146   -5.3876 F           1 ZZL      -0.1759
     27 C25         3.1928   -9.4009   -4.7212 C.ar        1 ZZL      -0.0267
     28 CL1         0.8814   -8.9135   -5.9920 Cl          1 ZZL      -0.0667
     29 C29         3.6360   -6.7125   -4.1326 C.ar        1 ZZL      -0.0425
     30 C30         4.5976   -7.6659   -3.7045 C.ar        1 ZZL       0.0182
     31 C31         5.7042   -7.1789   -2.9279 C.ar        1 ZZL       0.0633
     32 N32         5.5021   -6.1173   -2.1001 N.ar        1 ZZL      -0.2522
     33 C33         7.2927   -2.5094    0.0857 C.ar        1 ZZL      -0.0347
     34 C34         8.0765   -1.7967    1.0052 C.ar        1 ZZL      -0.0573
     35 H1          8.3868   -9.1702   -3.7743 H           1 ZZL       0.0550
     36 H2          7.1891   -8.5405   -4.9106 H           1 ZZL       0.0550
     37 H3          3.5644  -14.7559   -1.9621 H           1 ZZL       0.0651
     38 H4          3.9602  -14.3892   -4.3225 H           1 ZZL       0.0588
     39 H5          1.8106   -6.3698   -5.1225 H           1 ZZL       0.0679
     40 H6          8.3920   -4.2104    3.3338 H           1 ZZL       0.0621
     41 H7          7.0200   -5.3942    1.7907 H           1 ZZL       0.0543
     42 H8          5.2685   -4.0773   -0.7689 H           1 ZZL       0.2170
     43 H9          8.9188   -7.6157   -2.0223 H           1 ZZL       0.0835
     44 H10         3.9125  -12.9587   -0.3735 H           1 ZZL       0.0588
     45 H11         3.0124  -10.3845   -4.9618 H           1 ZZL       0.0697
     46 H12         3.7639   -5.7185   -3.9357 H           1 ZZL       0.0662
     47 H13         6.9936   -2.0477   -0.7787 H           1 ZZL       0.0543
     48 H14         8.3301   -0.8273    0.7854 H           1 ZZL       0.0621
@<TRIPOS>BOND
     1    21     1   1
     2     1    22   1
     3     2     7   1
     4    22     2   2
     5     2    23   1
     6    23     3  ar
     7     3    24   1
     8     3    25  ar
     9     5     4  ar
    10    25     4  ar
    11     6     5  ar
    12    23     6  ar
    13     6    26   1
    14     7    27  ar
    15     7    30  ar
    16     8     9  ar
    17    27     8  ar
    18     8    28   1
    19     9    29  ar
    20    11    10  ar
    21    11    12  ar
    22    13    11   1
    23    14    13  ar
    24    13    34  ar
    25    15    14  ar
    26    16    15  ar
    27    17    16   1
    28    16    33  ar
    29    18    17   1
    30    19    18  ar
    31    18    32  ar
    32    20    19  ar
    33    20    21  ar
    34    21    31  ar
    35    29    30  ar
    36    30    31   1
    37    31    32  ar
    38    33    34  ar
    39     1    35   1
    40     1    36   1
    41     4    37   1
    42     5    38   1
    43     9    39   1
    44    14    40   1
    45    15    41   1
    46    17    42   1
    47    20    43   1
    48    25    44   1
    49    27    45   1
    50    29    46   1
    51    33    47   1
    52    34    48   1
@<TRIPOS>SUBSTRUCTURE
     1  ZZL      1

