@<TRIPOS>MOLECULE
2wtv_ligand_084
    48    52
SMALL
GAST_HUCK
****
This file was generated by PARSER (from files_GN.cpp)

@<TRIPOS>ATOM
      1 C13         5.1373  -22.8442   -2.4884 C.3         1 ZZL       0.0407
      2 C15         3.1908  -23.2852   -3.8571 C.2         1 ZZL       0.0550
      3 C17         0.8621  -23.5972   -3.2250 C.ar        1 ZZL       0.1522
      4 C20        -0.3106  -25.6363   -3.8645 C.ar        1 ZZL      -0.0589
      5 C21         0.8555  -26.1198   -4.4786 C.ar        1 ZZL      -0.0237
      6 C22         2.0364  -25.3527   -4.4543 C.ar        1 ZZL       0.1522
      7 C24         3.4907  -22.3865   -4.9093 C.ar        1 ZZL       0.0251
      8 C26         3.4475  -21.9090   -7.3367 C.ar        1 ZZL       0.0501
      9 C28         4.0275  -20.6548   -7.1083 C.ar        1 ZZL      -0.0388
     10 O01         3.2737  -11.9981   -5.3073 O.co2       1 ZZL      -0.5638
     11 C02         2.6300  -13.1901   -5.2377 C.2         1 ZZL       0.0552
     12 O03         1.5888  -13.3611   -6.0857 O.co2       1 ZZL      -0.5638
     13 C04         3.0852  -14.2323   -4.3911 C.ar        1 ZZL      -0.0018
     14 C05         2.6023  -15.5504   -4.5403 C.ar        1 ZZL      -0.0573
     15 C06         3.0380  -16.5838   -3.6912 C.ar        1 ZZL      -0.0347
     16 C07         4.0005  -16.3434   -2.6832 C.ar        1 ZZL       0.0671
     17 N08         4.4881  -17.2958   -1.8252 N.pl3       1 ZZL      -0.2432
     18 C09         4.6187  -18.6297   -2.0161 C.ar        1 ZZL       0.2053
     19 N10         5.1201  -19.3877   -1.0137 N.ar        1 ZZL      -0.2577
     20 C11         5.2930  -20.7289   -1.1324 C.ar        1 ZZL       0.0185
     21 C12         4.9625  -21.3857   -2.3373 C.ar        1 ZZL       0.0154
     22 N14         3.9239  -23.4289   -2.8066 N.2         1 ZZL      -0.3323
     23 C16         2.0427  -24.0657   -3.8543 C.ar        1 ZZL       0.0838
     24 F18         0.8230  -22.4320   -2.6266 F           1 ZZL      -0.1759
     25 C19        -0.3033  -24.3863   -3.2263 C.ar        1 ZZL      -0.0237
     26 F23         3.1131  -25.8591   -5.0028 F           1 ZZL      -0.1759
     27 C25         3.1699  -22.7472   -6.2473 C.ar        1 ZZL      -0.0267
     28 CL1         3.0986  -22.4110   -8.9156 Cl          1 ZZL      -0.0667
     29 C29         4.3442  -20.2638   -5.8007 C.ar        1 ZZL      -0.0425
     30 C30         4.0968  -21.1065   -4.6892 C.ar        1 ZZL       0.0182
     31 C31         4.4506  -20.5953   -3.3971 C.ar        1 ZZL       0.0633
     32 N32         4.3112  -19.2568   -3.1749 N.ar        1 ZZL      -0.2522
     33 C33         4.4650  -15.0202   -2.5158 C.ar        1 ZZL      -0.0347
     34 C34         4.0224  -13.9813   -3.3591 C.ar        1 ZZL      -0.0573
     35 H1          5.5036  -23.3101   -1.5702 H           1 ZZL       0.0550
     36 H2          5.8694  -23.0489   -3.2773 H           1 ZZL       0.0550
     37 H3         -1.1658  -26.2017   -3.8763 H           1 ZZL       0.0651
     38 H4          0.8443  -27.0313   -4.9422 H           1 ZZL       0.0588
     39 H5          4.2176  -20.0141   -7.8838 H           1 ZZL       0.0679
     40 H6          1.9288  -15.7805   -5.2770 H           1 ZZL       0.0621
     41 H7          2.6191  -17.5053   -3.8078 H           1 ZZL       0.0543
     42 H8          4.8502  -16.9605   -0.9903 H           1 ZZL       0.2170
     43 H9          5.6727  -21.2487   -0.3368 H           1 ZZL       0.0835
     44 H10        -1.1539  -24.0497   -2.7659 H           1 ZZL       0.0588
     45 H11         2.7432  -23.6505   -6.4583 H           1 ZZL       0.0697
     46 H12         4.7715  -19.3417   -5.6763 H           1 ZZL       0.0662
     47 H13         5.1451  -14.8002   -1.7833 H           1 ZZL       0.0543
     48 H14         4.3886  -13.0380   -3.2056 H           1 ZZL       0.0621
@<TRIPOS>BOND
     1    21     1   1
     2     1    22   1
     3     2     7   1
     4    22     2   2
     5     2    23   1
     6    23     3  ar
     7     3    24   1
     8     3    25  ar
     9     5     4  ar
    10    25     4  ar
    11     6     5  ar
    12    23     6  ar
    13     6    26   1
    14     7    27  ar
    15     7    30  ar
    16     8     9  ar
    17    27     8  ar
    18     8    28   1
    19     9    29  ar
    20    11    10  ar
    21    11    12  ar
    22    13    11   1
    23    14    13  ar
    24    13    34  ar
    25    15    14  ar
    26    16    15  ar
    27    17    16   1
    28    16    33  ar
    29    18    17   1
    30    19    18  ar
    31    18    32  ar
    32    20    19  ar
    33    20    21  ar
    34    21    31  ar
    35    29    30  ar
    36    30    31   1
    37    31    32  ar
    38    33    34  ar
    39     1    35   1
    40     1    36   1
    41     4    37   1
    42     5    38   1
    43     9    39   1
    44    14    40   1
    45    15    41   1
    46    17    42   1
    47    20    43   1
    48    25    44   1
    49    27    45   1
    50    29    46   1
    51    33    47   1
    52    34    48   1
@<TRIPOS>SUBSTRUCTURE
     1  ZZL      1

