@<TRIPOS>MOLECULE
2wtv_ligand_074
    48    52
SMALL
GAST_HUCK
****
This file was generated by PARSER (from files_GN.cpp)

@<TRIPOS>ATOM
      1 C13        12.7397   -5.4271   -3.6818 C.3         1 ZZL       0.0407
      2 C15        13.3476   -7.2355   -2.1786 C.2         1 ZZL       0.0550
      3 C17        15.4249   -8.3792   -1.5582 C.ar        1 ZZL       0.1522
      4 C20        16.2674   -8.1777    0.7198 C.ar        1 ZZL      -0.0589
      5 C21        15.2468   -7.2563    1.0173 C.ar        1 ZZL      -0.0237
      6 C22        14.2789   -6.9358    0.0409 C.ar        1 ZZL       0.1522
      7 C24        12.2116   -8.0564   -2.3817 C.ar        1 ZZL       0.0251
      8 C26        11.2914  -10.3378   -2.6387 C.ar        1 ZZL       0.0501
      9 C28        10.0204   -9.8091   -2.8920 C.ar        1 ZZL      -0.0388
     10 O01         2.1468   -6.6535    0.4248 O.co2       1 ZZL      -0.5638
     11 C02         3.4241   -7.0033    0.6988 C.2         1 ZZL       0.0552
     12 O03         3.5946   -8.0572    1.5285 O.co2       1 ZZL      -0.5638
     13 C04         4.5276   -6.2863    0.1711 C.ar        1 ZZL      -0.0018
     14 C05         5.8545   -6.7543    0.3375 C.ar        1 ZZL      -0.0573
     15 C06         6.9451   -6.0507   -0.2086 C.ar        1 ZZL      -0.0347
     16 C07         6.7426   -4.8520   -0.9324 C.ar        1 ZZL       0.0671
     17 N08         7.7422   -4.0908   -1.4723 N.pl3       1 ZZL      -0.2432
     18 C09         8.9382   -4.4726   -1.9725 C.ar        1 ZZL       0.2053
     19 N10         9.7450   -3.5026   -2.4694 N.ar        1 ZZL      -0.2577
     20 C11        10.9543   -3.7809   -3.0121 C.ar        1 ZZL       0.0185
     21 C12        11.4192   -5.1101   -3.0865 C.ar        1 ZZL       0.0154
     22 N14        13.5212   -6.1000   -2.7553 N.2         1 ZZL      -0.3323
     23 C16        14.3320   -7.5318   -1.2447 C.ar        1 ZZL       0.0838
     24 F18        15.5937   -8.8707   -2.7620 F           1 ZZL      -0.1759
     25 C19        16.3687   -8.7214   -0.5738 C.ar        1 ZZL      -0.0237
     26 F23        13.3437   -6.0824    0.3662 F           1 ZZL      -0.1759
     27 C25        12.3631   -9.4694   -2.3752 C.ar        1 ZZL      -0.0267
     28 CL1        11.5206  -12.0162   -2.6804 Cl          1 ZZL      -0.0667
     29 C29         9.8257   -8.4243   -2.8606 C.ar        1 ZZL      -0.0425
     30 C30        10.8944   -7.5246   -2.6075 C.ar        1 ZZL       0.0182
     31 C31        10.5712   -6.1265   -2.5777 C.ar        1 ZZL       0.0633
     32 N32         9.3703   -5.7569   -2.0489 N.ar        1 ZZL      -0.2522
     33 C33         5.4252   -4.3621   -1.0587 C.ar        1 ZZL      -0.0347
     34 C34         4.3331   -5.0742   -0.5318 C.ar        1 ZZL      -0.0573
     35 H1         13.2779   -4.5218   -3.9629 H           1 ZZL       0.0550
     36 H2         12.6066   -6.0329   -4.5800 H           1 ZZL       0.0550
     37 H3         16.9461   -8.4388    1.4420 H           1 ZZL       0.0651
     38 H4         15.2085   -6.8278    1.9441 H           1 ZZL       0.0588
     39 H5          9.2337  -10.4302   -3.1025 H           1 ZZL       0.0679
     40 H6          6.0431   -7.6138    0.8607 H           1 ZZL       0.0621
     41 H7          7.8864   -6.4060   -0.0419 H           1 ZZL       0.0543
     42 H8          7.5379   -3.1494   -1.5725 H           1 ZZL       0.2170
     43 H9         11.5161   -3.0071   -3.3702 H           1 ZZL       0.0835
     44 H10        17.1355   -9.3638   -0.7904 H           1 ZZL       0.0588
     45 H11        13.2685   -9.8993   -2.2078 H           1 ZZL       0.0697
     46 H12         8.8780   -8.0798   -3.0496 H           1 ZZL       0.0662
     47 H13         5.2460   -3.4823   -1.5473 H           1 ZZL       0.0543
     48 H14         3.3937   -4.6887   -0.6596 H           1 ZZL       0.0621
@<TRIPOS>BOND
     1    21     1   1
     2     1    22   1
     3     2     7   1
     4    22     2   2
     5     2    23   1
     6    23     3  ar
     7     3    24   1
     8     3    25  ar
     9     5     4  ar
    10    25     4  ar
    11     6     5  ar
    12    23     6  ar
    13     6    26   1
    14     7    27  ar
    15     7    30  ar
    16     8     9  ar
    17    27     8  ar
    18     8    28   1
    19     9    29  ar
    20    11    10  ar
    21    11    12  ar
    22    13    11   1
    23    14    13  ar
    24    13    34  ar
    25    15    14  ar
    26    16    15  ar
    27    17    16   1
    28    16    33  ar
    29    18    17   1
    30    19    18  ar
    31    18    32  ar
    32    20    19  ar
    33    20    21  ar
    34    21    31  ar
    35    29    30  ar
    36    30    31   1
    37    31    32  ar
    38    33    34  ar
    39     1    35   1
    40     1    36   1
    41     4    37   1
    42     5    38   1
    43     9    39   1
    44    14    40   1
    45    15    41   1
    46    17    42   1
    47    20    43   1
    48    25    44   1
    49    27    45   1
    50    29    46   1
    51    33    47   1
    52    34    48   1
@<TRIPOS>SUBSTRUCTURE
     1  ZZL      1

