@<TRIPOS>MOLECULE
2wtv_ligand_016
    48    52
SMALL
GAST_HUCK
****
This file was generated by PARSER (from files_GN.cpp)

@<TRIPOS>ATOM
      1 C13         7.1236   -4.4392    0.9642 C.3         1 ZZL       0.0407
      2 C15         8.8989   -4.1037   -0.6683 C.2         1 ZZL       0.0550
      3 C17         9.8474   -2.9900   -2.6499 C.ar        1 ZZL       0.1522
      4 C20        11.2991   -1.0469   -2.3916 C.ar        1 ZZL      -0.0589
      5 C21        11.1241   -1.1013   -0.9997 C.ar        1 ZZL      -0.0237
      6 C22        10.3230   -2.1065   -0.4254 C.ar        1 ZZL       0.1522
      7 C24         9.0557   -5.4610   -1.0280 C.ar        1 ZZL       0.0251
      8 C26        10.6175   -7.2607   -1.6785 C.ar        1 ZZL       0.0501
      9 C28         9.5408   -8.1438   -1.8330 C.ar        1 ZZL      -0.0388
     10 O01         5.3633  -11.6548   -6.3049 O.co2       1 ZZL      -0.5638
     11 C02         4.2149  -10.9417   -6.2686 C.2         1 ZZL       0.0552
     12 O03         3.2904  -11.2259   -7.2127 O.co2       1 ZZL      -0.5638
     13 C04         3.9858   -9.9616   -5.2741 C.ar        1 ZZL      -0.0018
     14 C05         4.6388  -10.0501   -4.0241 C.ar        1 ZZL      -0.0573
     15 C06         4.4260   -9.0801   -3.0290 C.ar        1 ZZL      -0.0347
     16 C07         3.5854   -7.9698   -3.2710 C.ar        1 ZZL       0.0671
     17 N08         3.3639   -6.9866   -2.3459 N.pl3       1 ZZL      -0.2432
     18 C09         4.2968   -6.3790   -1.5757 C.ar        1 ZZL       0.2053
     19 N10         3.8911   -5.4771   -0.6500 N.ar        1 ZZL      -0.2577
     20 C11         4.7704   -4.8397    0.1626 C.ar        1 ZZL       0.0185
     21 C12         6.1553   -5.0995    0.0613 C.ar        1 ZZL       0.0154
     22 N14         8.0365   -3.7209    0.2090 N.2         1 ZZL      -0.3323
     23 C16         9.6718   -3.0769   -1.2395 C.ar        1 ZZL       0.0838
     24 F18         9.2554   -3.8135   -3.4780 F           1 ZZL      -0.1759
     25 C19        10.6580   -1.9863   -3.2156 C.ar        1 ZZL      -0.0237
     26 F23        10.2411   -2.1295    0.8802 F           1 ZZL      -0.1759
     27 C25        10.3720   -5.9376   -1.2771 C.ar        1 ZZL      -0.0267
     28 CL1        12.1977   -7.7919   -1.9708 Cl          1 ZZL      -0.0667
     29 C29         8.2345   -7.7044   -1.5759 C.ar        1 ZZL      -0.0425
     30 C30         7.9586   -6.3735   -1.1645 C.ar        1 ZZL       0.0182
     31 C31         6.5863   -6.0201   -0.9309 C.ar        1 ZZL       0.0633
     32 N32         5.6286   -6.6149   -1.6941 N.ar        1 ZZL      -0.2522
     33 C33         2.9031   -7.8963   -4.5028 C.ar        1 ZZL      -0.0347
     34 C34         3.1018   -8.8776   -5.4953 C.ar        1 ZZL      -0.0573
     35 H1          7.6410   -5.1864    1.5708 H           1 ZZL       0.0550
     36 H2          6.6374   -3.7383    1.6455 H           1 ZZL       0.0550
     37 H3         11.8836   -0.3170   -2.8040 H           1 ZZL       0.0651
     38 H4         11.5924   -0.4125   -0.4046 H           1 ZZL       0.0588
     39 H5          9.7005   -9.1118   -2.1261 H           1 ZZL       0.0679
     40 H6          5.2571  -10.8378   -3.8125 H           1 ZZL       0.0621
     41 H7          4.8700   -9.2036   -2.1149 H           1 ZZL       0.0543
     42 H8          2.4536   -6.6496   -2.2753 H           1 ZZL       0.2170
     43 H9          4.4074   -4.1815    0.8560 H           1 ZZL       0.0835
     44 H10        10.7815   -1.9302   -4.2309 H           1 ZZL       0.0588
     45 H11        11.1795   -5.3178   -1.1670 H           1 ZZL       0.0697
     46 H12         7.4781   -8.3843   -1.6827 H           1 ZZL       0.0662
     47 H13         2.2788   -7.1085   -4.6999 H           1 ZZL       0.0543
     48 H14         2.6130   -8.7777   -6.3879 H           1 ZZL       0.0621
@<TRIPOS>BOND
     1    21     1   1
     2     1    22   1
     3     2     7   1
     4    22     2   2
     5     2    23   1
     6    23     3  ar
     7     3    24   1
     8     3    25  ar
     9     5     4  ar
    10    25     4  ar
    11     6     5  ar
    12    23     6  ar
    13     6    26   1
    14     7    27  ar
    15     7    30  ar
    16     8     9  ar
    17    27     8  ar
    18     8    28   1
    19     9    29  ar
    20    11    10  ar
    21    11    12  ar
    22    13    11   1
    23    14    13  ar
    24    13    34  ar
    25    15    14  ar
    26    16    15  ar
    27    17    16   1
    28    16    33  ar
    29    18    17   1
    30    19    18  ar
    31    18    32  ar
    32    20    19  ar
    33    20    21  ar
    34    21    31  ar
    35    29    30  ar
    36    30    31   1
    37    31    32  ar
    38    33    34  ar
    39     1    35   1
    40     1    36   1
    41     4    37   1
    42     5    38   1
    43     9    39   1
    44    14    40   1
    45    15    41   1
    46    17    42   1
    47    20    43   1
    48    25    44   1
    49    27    45   1
    50    29    46   1
    51    33    47   1
    52    34    48   1
@<TRIPOS>SUBSTRUCTURE
     1  ZZL      1

