@<TRIPOS>MOLECULE
2wtv_ligand_022
    48    52
SMALL
GAST_HUCK
****
This file was generated by PARSER (from files_GN.cpp)

@<TRIPOS>ATOM
      1 C13         6.9773  -10.5220   -6.9046 C.3         1 ZZL       0.0407
      2 C15         9.1704  -11.2627   -6.1096 C.2         1 ZZL       0.0550
      3 C17        10.0320  -13.4536   -6.7957 C.ar        1 ZZL       0.1522
      4 C20        12.3703  -13.7277   -7.4393 C.ar        1 ZZL      -0.0589
      5 C21        12.5806  -12.3546   -7.2595 C.ar        1 ZZL      -0.0237
      6 C22        11.5112  -11.5182   -6.8776 C.ar        1 ZZL       0.1522
      7 C24         9.1254  -10.6588   -4.8232 C.ar        1 ZZL       0.0251
      8 C26        10.3322   -9.5026   -2.9871 C.ar        1 ZZL       0.0501
      9 C28         9.1321   -9.3437   -2.2852 C.ar        1 ZZL      -0.0388
     10 O01         3.9971  -14.0137    3.5289 O.co2       1 ZZL      -0.5638
     11 C02         4.8130  -13.2841    2.7390 C.2         1 ZZL       0.0552
     12 O03         5.8908  -12.7133    3.3188 O.co2       1 ZZL      -0.5638
     13 C04         4.5706  -13.1460    1.3586 C.ar        1 ZZL      -0.0018
     14 C05         3.2572  -13.0436    0.8476 C.ar        1 ZZL      -0.0573
     15 C06         3.0374  -12.8765   -0.5332 C.ar        1 ZZL      -0.0347
     16 C07         4.1180  -12.8268   -1.4410 C.ar        1 ZZL       0.0671
     17 N08         3.8305  -12.6600   -2.7709 N.pl3       1 ZZL      -0.2432
     18 C09         4.6122  -12.1409   -3.7446 C.ar        1 ZZL       0.2053
     19 N10         4.1456  -12.1244   -5.0178 N.ar        1 ZZL      -0.2577
     20 C11         4.8748  -11.6187   -6.0419 C.ar        1 ZZL       0.0185
     21 C12         6.1608  -11.0782   -5.8108 C.ar        1 ZZL       0.0154
     22 N14         8.2024  -11.1783   -6.9592 N.2         1 ZZL      -0.3323
     23 C16        10.2349  -12.0624   -6.5647 C.ar        1 ZZL       0.0838
     24 F18         8.8655  -14.0206   -6.6215 F           1 ZZL      -0.1759
     25 C19        11.0905  -14.2719   -7.2403 C.ar        1 ZZL      -0.0237
     26 F23        11.7426  -10.2320   -6.8378 F           1 ZZL      -0.1759
     27 C25        10.3194  -10.1676   -4.2229 C.ar        1 ZZL      -0.0267
     28 CL1        11.7835   -8.8981   -2.3619 Cl          1 ZZL      -0.0667
     29 C29         7.9408   -9.8507   -2.8234 C.ar        1 ZZL      -0.0425
     30 C30         7.9086  -10.5236   -4.0732 C.ar        1 ZZL       0.0182
     31 C31         6.6406  -11.0676   -4.4779 C.ar        1 ZZL       0.0633
     32 N32         5.8348  -11.6037   -3.5163 N.ar        1 ZZL      -0.2522
     33 C33         5.4266  -12.9955   -0.9272 C.ar        1 ZZL      -0.0347
     34 C34         5.6526  -13.1233    0.4537 C.ar        1 ZZL      -0.0573
     35 H1          7.1287   -9.4534   -6.7381 H           1 ZZL       0.0550
     36 H2          6.4862  -10.6424   -7.8743 H           1 ZZL       0.0550
     37 H3         13.1432  -14.3243   -7.7384 H           1 ZZL       0.0651
     38 H4         13.5067  -11.9554   -7.4281 H           1 ZZL       0.0588
     39 H5          9.1258   -8.8831   -1.3634 H           1 ZZL       0.0679
     40 H6          2.4525  -13.0478    1.4788 H           1 ZZL       0.0621
     41 H7          2.0771  -12.7701   -0.8716 H           1 ZZL       0.0543
     42 H8          2.9258  -12.8946   -3.0427 H           1 ZZL       0.2170
     43 H9          4.4763  -11.6342   -6.9820 H           1 ZZL       0.0835
     44 H10        10.9365  -15.2680   -7.4135 H           1 ZZL       0.0588
     45 H11        11.2256  -10.2651   -4.7045 H           1 ZZL       0.0697
     46 H12         7.0826   -9.7149   -2.2781 H           1 ZZL       0.0662
     47 H13         6.2332  -13.0530   -1.5487 H           1 ZZL       0.0543
     48 H14         6.6138  -13.2318    0.7865 H           1 ZZL       0.0621
@<TRIPOS>BOND
     1    21     1   1
     2     1    22   1
     3     2     7   1
     4    22     2   2
     5     2    23   1
     6    23     3  ar
     7     3    24   1
     8     3    25  ar
     9     5     4  ar
    10    25     4  ar
    11     6     5  ar
    12    23     6  ar
    13     6    26   1
    14     7    27  ar
    15     7    30  ar
    16     8     9  ar
    17    27     8  ar
    18     8    28   1
    19     9    29  ar
    20    11    10  ar
    21    11    12  ar
    22    13    11   1
    23    14    13  ar
    24    13    34  ar
    25    15    14  ar
    26    16    15  ar
    27    17    16   1
    28    16    33  ar
    29    18    17   1
    30    19    18  ar
    31    18    32  ar
    32    20    19  ar
    33    20    21  ar
    34    21    31  ar
    35    29    30  ar
    36    30    31   1
    37    31    32  ar
    38    33    34  ar
    39     1    35   1
    40     1    36   1
    41     4    37   1
    42     5    38   1
    43     9    39   1
    44    14    40   1
    45    15    41   1
    46    17    42   1
    47    20    43   1
    48    25    44   1
    49    27    45   1
    50    29    46   1
    51    33    47   1
    52    34    48   1
@<TRIPOS>SUBSTRUCTURE
     1  ZZL      1

