@<TRIPOS>MOLECULE
2wtv_ligand_053
    48    52
SMALL
GAST_HUCK
****
This file was generated by PARSER (from files_GN.cpp)

@<TRIPOS>ATOM
      1 C13         1.9210  -12.1911   -1.8965 C.3         1 ZZL       0.0407
      2 C15         0.8165  -11.1988   -3.8354 C.2         1 ZZL       0.0550
      3 C17        -1.2339  -11.4668   -5.1815 C.ar        1 ZZL       0.1522
      4 C20        -1.1108  -12.5237   -7.3756 C.ar        1 ZZL      -0.0589
      5 C21         0.2522  -12.7847   -7.1654 C.ar        1 ZZL      -0.0237
      6 C22         0.8907  -12.3399   -5.9921 C.ar        1 ZZL       0.1522
      7 C24         1.0887   -9.8320   -3.5469 C.ar        1 ZZL       0.0251
      8 C26         0.3829   -7.4570   -3.7156 C.ar        1 ZZL       0.0501
      9 C28         1.4867   -7.0546   -2.9552 C.ar        1 ZZL      -0.0388
     10 O01         7.9615   -3.5019   -1.7558 O.co2       1 ZZL      -0.5638
     11 C02         8.8137   -4.5402   -1.8768 C.2         1 ZZL       0.0552
     12 O03        10.1333   -4.2633   -1.7194 O.co2       1 ZZL      -0.5638
     13 C04         8.3578   -5.8573   -2.1342 C.ar        1 ZZL      -0.0018
     14 C05         9.2001   -6.9674   -1.9196 C.ar        1 ZZL      -0.0573
     15 C06         8.7225   -8.2777   -2.0899 C.ar        1 ZZL      -0.0347
     16 C07         7.3939   -8.5345   -2.4974 C.ar        1 ZZL       0.0671
     17 N08         7.0042   -9.8573   -2.4774 N.pl3       1 ZZL      -0.2432
     18 C09         5.7701  -10.4094   -2.4324 C.ar        1 ZZL       0.2053
     19 N10         5.6583  -11.7226   -2.1077 N.ar        1 ZZL      -0.2577
     20 C11         4.4523  -12.3249   -1.9354 C.ar        1 ZZL       0.0185
     21 C12         3.2559  -11.5947   -2.1170 C.ar        1 ZZL       0.0154
     22 N14         1.2109  -12.1729   -3.0884 N.2         1 ZZL      -0.3323
     23 C16         0.1625  -11.6381   -4.9917 C.ar        1 ZZL       0.0838
     24 F18        -1.9750  -10.9071   -4.2656 F           1 ZZL      -0.1759
     25 C19        -1.8572  -11.8755   -6.3783 C.ar        1 ZZL      -0.0237
     26 F23         2.1618  -12.6022   -5.8520 F           1 ZZL      -0.1759
     27 C25         0.1905   -8.8202   -3.9939 C.ar        1 ZZL      -0.0267
     28 CL1        -0.7097   -6.3101   -4.3051 Cl          1 ZZL      -0.0667
     29 C29         2.4083   -8.0135   -2.5201 C.ar        1 ZZL      -0.0425
     30 C30         2.2594   -9.3907   -2.8403 C.ar        1 ZZL       0.0182
     31 C31         3.3672  -10.2421   -2.5225 C.ar        1 ZZL       0.0633
     32 N32         4.6226   -9.7184   -2.6398 N.ar        1 ZZL      -0.2522
     33 C33         6.5782   -7.4156   -2.8020 C.ar        1 ZZL      -0.0347
     34 C34         7.0452   -6.0966   -2.6029 C.ar        1 ZZL      -0.0573
     35 H1          1.3785  -11.6248   -1.1339 H           1 ZZL       0.0550
     36 H2          1.9973  -13.2232   -1.5564 H           1 ZZL       0.0550
     37 H3         -1.5647  -12.8314   -8.2358 H           1 ZZL       0.0651
     38 H4          0.7786  -13.3110   -7.8674 H           1 ZZL       0.0588
     39 H5          1.6518   -6.0664   -2.7453 H           1 ZZL       0.0679
     40 H6         10.1590   -6.8376   -1.5821 H           1 ZZL       0.0621
     41 H7          9.3545   -9.0526   -1.8661 H           1 ZZL       0.0543
     42 H8          7.7244  -10.4861   -2.3130 H           1 ZZL       0.2170
     43 H9          4.4296  -13.3097   -1.6700 H           1 ZZL       0.0835
     44 H10        -2.8586  -11.7143   -6.5187 H           1 ZZL       0.0588
     45 H11        -0.6457   -9.0696   -4.5337 H           1 ZZL       0.0697
     46 H12         3.2124   -7.6821   -1.9774 H           1 ZZL       0.0662
     47 H13         5.6320   -7.5333   -3.1597 H           1 ZZL       0.0543
     48 H14         6.4116   -5.3190   -2.7930 H           1 ZZL       0.0621
@<TRIPOS>BOND
     1    21     1   1
     2     1    22   1
     3     2     7   1
     4    22     2   2
     5     2    23   1
     6    23     3  ar
     7     3    24   1
     8     3    25  ar
     9     5     4  ar
    10    25     4  ar
    11     6     5  ar
    12    23     6  ar
    13     6    26   1
    14     7    27  ar
    15     7    30  ar
    16     8     9  ar
    17    27     8  ar
    18     8    28   1
    19     9    29  ar
    20    11    10  ar
    21    11    12  ar
    22    13    11   1
    23    14    13  ar
    24    13    34  ar
    25    15    14  ar
    26    16    15  ar
    27    17    16   1
    28    16    33  ar
    29    18    17   1
    30    19    18  ar
    31    18    32  ar
    32    20    19  ar
    33    20    21  ar
    34    21    31  ar
    35    29    30  ar
    36    30    31   1
    37    31    32  ar
    38    33    34  ar
    39     1    35   1
    40     1    36   1
    41     4    37   1
    42     5    38   1
    43     9    39   1
    44    14    40   1
    45    15    41   1
    46    17    42   1
    47    20    43   1
    48    25    44   1
    49    27    45   1
    50    29    46   1
    51    33    47   1
    52    34    48   1
@<TRIPOS>SUBSTRUCTURE
     1  ZZL      1

