@<TRIPOS>MOLECULE
2wtv_ligand_085
    48    52
SMALL
GAST_HUCK
****
This file was generated by PARSER (from files_GN.cpp)

@<TRIPOS>ATOM
      1 C13         3.1784  -18.8848   -1.6366 C.3         1 ZZL       0.0407
      2 C15         5.1240  -20.2244   -2.2051 C.2         1 ZZL       0.0550
      3 C17         7.1966  -20.3694   -0.9324 C.ar        1 ZZL       0.1522
      4 C20         8.1018  -22.5334   -0.2651 C.ar        1 ZZL      -0.0589
      5 C21         7.0294  -23.1715   -0.9101 C.ar        1 ZZL      -0.0237
      6 C22         6.0026  -22.4140   -1.5094 C.ar        1 ZZL       0.1522
      7 C24         5.1131  -19.9618   -3.5947 C.ar        1 ZZL       0.0251
      8 C26         5.2928  -20.8423   -5.8998 C.ar        1 ZZL       0.0501
      9 C28         4.9260  -19.5943   -6.4196 C.ar        1 ZZL      -0.0388
     10 O01         4.8272   -8.3438   -0.5795 O.co2       1 ZZL      -0.5638
     11 C02         4.0481   -8.8272   -1.5811 C.2         1 ZZL       0.0552
     12 O03         2.9736   -8.1035   -1.9866 O.co2       1 ZZL      -0.5638
     13 C04         4.2827  -10.1062   -2.1071 C.ar        1 ZZL      -0.0018
     14 C05         3.2066  -10.9967   -2.3072 C.ar        1 ZZL      -0.0573
     15 C06         3.4431  -12.2858   -2.8241 C.ar        1 ZZL      -0.0347
     16 C07         4.7546  -12.7025   -3.1369 C.ar        1 ZZL       0.0671
     17 N08         5.0431  -13.9483   -3.6134 N.pl3       1 ZZL      -0.2432
     18 C09         4.5451  -15.1269   -3.1520 C.ar        1 ZZL       0.2053
     19 N10         3.7378  -15.1886   -2.0701 N.ar        1 ZZL      -0.2577
     20 C11         3.2857  -16.3673   -1.5855 C.ar        1 ZZL       0.0185
     21 C12         3.6467  -17.5885   -2.1899 C.ar        1 ZZL       0.0154
     22 N14         4.2597  -19.7193   -1.3924 N.2         1 ZZL      -0.3323
     23 C16         6.1018  -21.0001   -1.5788 C.ar        1 ZZL       0.0838
     24 F18         7.3238  -19.0685   -0.9285 F           1 ZZL      -0.1759
     25 C19         8.1750  -21.1314   -0.2634 C.ar        1 ZZL      -0.0237
     26 F23         4.9641  -23.0492   -1.9859 F           1 ZZL      -0.1759
     27 C25         5.4156  -21.0102   -4.5074 C.ar        1 ZZL      -0.0267
     28 CL1         5.5185  -22.1368   -6.9675 Cl          1 ZZL      -0.0667
     29 C29         4.6768  -18.5254   -5.5453 C.ar        1 ZZL      -0.0425
     30 C30         4.7631  -18.6776   -4.1399 C.ar        1 ZZL       0.0182
     31 C31         4.4431  -17.5229   -3.3580 C.ar        1 ZZL       0.0633
     32 N32         4.8749  -16.2900   -3.7749 N.ar        1 ZZL      -0.2522
     33 C33         5.8150  -11.7840   -3.0029 C.ar        1 ZZL      -0.0347
     34 C34         5.5841  -10.5043   -2.4681 C.ar        1 ZZL      -0.0573
     35 H1          2.4890  -19.3685   -2.3326 H           1 ZZL       0.0550
     36 H2          2.6454  -18.7452   -0.6915 H           1 ZZL       0.0550
     37 H3          8.8243  -23.0883    0.2033 H           1 ZZL       0.0651
     38 H4          6.9912  -24.1916   -0.9277 H           1 ZZL       0.0588
     39 H5          4.8431  -19.4504   -7.4318 H           1 ZZL       0.0679
     40 H6          2.2476  -10.7264   -2.0695 H           1 ZZL       0.0621
     41 H7          2.6419  -12.9057   -2.9811 H           1 ZZL       0.0543
     42 H8          5.7417  -14.0037   -4.2806 H           1 ZZL       0.2170
     43 H9          2.6833  -16.3521   -0.7635 H           1 ZZL       0.0835
     44 H10         8.9508  -20.6680    0.2166 H           1 ZZL       0.0588
     45 H11         5.6948  -21.9320   -4.1637 H           1 ZZL       0.0697
     46 H12         4.3923  -17.6301   -5.9543 H           1 ZZL       0.0662
     47 H13         6.7681  -12.0462   -3.2763 H           1 ZZL       0.0543
     48 H14         6.3728   -9.8553   -2.3771 H           1 ZZL       0.0621
@<TRIPOS>BOND
     1    21     1   1
     2     1    22   1
     3     2     7   1
     4    22     2   2
     5     2    23   1
     6    23     3  ar
     7     3    24   1
     8     3    25  ar
     9     5     4  ar
    10    25     4  ar
    11     6     5  ar
    12    23     6  ar
    13     6    26   1
    14     7    27  ar
    15     7    30  ar
    16     8     9  ar
    17    27     8  ar
    18     8    28   1
    19     9    29  ar
    20    11    10  ar
    21    11    12  ar
    22    13    11   1
    23    14    13  ar
    24    13    34  ar
    25    15    14  ar
    26    16    15  ar
    27    17    16   1
    28    16    33  ar
    29    18    17   1
    30    19    18  ar
    31    18    32  ar
    32    20    19  ar
    33    20    21  ar
    34    21    31  ar
    35    29    30  ar
    36    30    31   1
    37    31    32  ar
    38    33    34  ar
    39     1    35   1
    40     1    36   1
    41     4    37   1
    42     5    38   1
    43     9    39   1
    44    14    40   1
    45    15    41   1
    46    17    42   1
    47    20    43   1
    48    25    44   1
    49    27    45   1
    50    29    46   1
    51    33    47   1
    52    34    48   1
@<TRIPOS>SUBSTRUCTURE
     1  ZZL      1

