@<TRIPOS>MOLECULE
2wtv_ligand_069
    48    52
SMALL
GAST_HUCK
****
This file was generated by PARSER (from files_GN.cpp)

@<TRIPOS>ATOM
      1 C13         5.1464  -11.0110   -3.1091 C.3         1 ZZL       0.0407
      2 C15         3.4147   -9.4703   -3.8751 C.2         1 ZZL       0.0550
      3 C17         2.0242  -10.3910   -5.7188 C.ar        1 ZZL       0.1522
      4 C20         0.6269   -8.9036   -7.0570 C.ar        1 ZZL      -0.0589
      5 C21         1.0992   -7.8039   -6.3172 C.ar        1 ZZL      -0.0237
      6 C22         2.0615   -7.9863   -5.3072 C.ar        1 ZZL       0.1522
      7 C24         3.4288   -8.6348   -2.7329 C.ar        1 ZZL       0.0251
      8 C26         2.1071   -7.1710   -1.2463 C.ar        1 ZZL       0.0501
      9 C28         3.2594   -6.8458   -0.5196 C.ar        1 ZZL      -0.0388
     10 O01         8.1574   -1.2248   -0.6748 O.co2       1 ZZL      -0.5638
     11 C02         8.4924   -2.2728    0.1122 C.2         1 ZZL       0.0552
     12 O03         8.5561   -2.0440    1.4506 O.co2       1 ZZL      -0.5638
     13 C04         8.7683   -3.5441   -0.4440 C.ar        1 ZZL      -0.0018
     14 C05         9.1703   -3.6789   -1.7934 C.ar        1 ZZL      -0.0573
     15 C06         9.3783   -4.9504   -2.3652 C.ar        1 ZZL      -0.0347
     16 C07         9.1546   -6.1147   -1.6079 C.ar        1 ZZL       0.0671
     17 N08         9.2863   -7.3310   -2.1977 N.pl3       1 ZZL      -0.2432
     18 C09         8.2695   -8.2012   -2.4030 C.ar        1 ZZL       0.2053
     19 N10         8.5406   -9.4060   -2.9567 N.ar        1 ZZL      -0.2577
     20 C11         7.5655  -10.3189   -3.1970 C.ar        1 ZZL       0.0185
     21 C12         6.2213  -10.0213   -2.8790 C.ar        1 ZZL       0.0154
     22 N14         4.1979  -10.4877   -3.9801 N.2         1 ZZL      -0.3323
     23 C16         2.5298   -9.2872   -4.9560 C.ar        1 ZZL       0.0838
     24 F18         2.3448  -11.6290   -5.4460 F           1 ZZL      -0.1759
     25 C19         1.0994  -10.1927   -6.7590 C.ar        1 ZZL      -0.0237
     26 F23         2.5174   -6.9061   -4.7282 F           1 ZZL      -0.1759
     27 C25         2.1901   -8.0715   -2.3172 C.ar        1 ZZL      -0.0267
     28 CL1         0.6154   -6.4893   -0.8318 Cl          1 ZZL      -0.0667
     29 C29         4.4903   -7.4161   -0.8794 C.ar        1 ZZL      -0.0425
     30 C30         4.6105   -8.2912   -1.9950 C.ar        1 ZZL       0.0182
     31 C31         5.9313   -8.7445   -2.3290 C.ar        1 ZZL       0.0633
     32 N32         6.9783   -7.9053   -2.1070 N.ar        1 ZZL      -0.2522
     33 C33         8.7865   -5.9906   -0.2505 C.ar        1 ZZL      -0.0347
     34 C34         8.6093   -4.7179    0.3295 C.ar        1 ZZL      -0.0573
     35 H1          4.6728  -11.2703   -2.1562 H           1 ZZL       0.0550
     36 H2          5.5267  -11.9314   -3.5608 H           1 ZZL       0.0550
     37 H3         -0.0526   -8.7573   -7.8013 H           1 ZZL       0.0651
     38 H4          0.7415   -6.8677   -6.5294 H           1 ZZL       0.0588
     39 H5          3.2031   -6.2189    0.2819 H           1 ZZL       0.0679
     40 H6          9.3059   -2.8546   -2.3846 H           1 ZZL       0.0621
     41 H7          9.6630   -5.0247   -3.3442 H           1 ZZL       0.0543
     42 H8         10.1517   -7.5531   -2.5819 H           1 ZZL       0.2170
     43 H9          7.8246  -11.2194   -3.6059 H           1 ZZL       0.0835
     44 H10         0.7405  -10.9900   -7.2996 H           1 ZZL       0.0588
     45 H11         1.3232   -8.3168   -2.7940 H           1 ZZL       0.0697
     46 H12         5.3039   -7.1710   -0.3119 H           1 ZZL       0.0662
     47 H13         8.6411   -6.8235    0.3202 H           1 ZZL       0.0543
     48 H14         8.3276   -4.6645    1.3089 H           1 ZZL       0.0621
@<TRIPOS>BOND
     1    21     1   1
     2     1    22   1
     3     2     7   1
     4    22     2   2
     5     2    23   1
     6    23     3  ar
     7     3    24   1
     8     3    25  ar
     9     5     4  ar
    10    25     4  ar
    11     6     5  ar
    12    23     6  ar
    13     6    26   1
    14     7    27  ar
    15     7    30  ar
    16     8     9  ar
    17    27     8  ar
    18     8    28   1
    19     9    29  ar
    20    11    10  ar
    21    11    12  ar
    22    13    11   1
    23    14    13  ar
    24    13    34  ar
    25    15    14  ar
    26    16    15  ar
    27    17    16   1
    28    16    33  ar
    29    18    17   1
    30    19    18  ar
    31    18    32  ar
    32    20    19  ar
    33    20    21  ar
    34    21    31  ar
    35    29    30  ar
    36    30    31   1
    37    31    32  ar
    38    33    34  ar
    39     1    35   1
    40     1    36   1
    41     4    37   1
    42     5    38   1
    43     9    39   1
    44    14    40   1
    45    15    41   1
    46    17    42   1
    47    20    43   1
    48    25    44   1
    49    27    45   1
    50    29    46   1
    51    33    47   1
    52    34    48   1
@<TRIPOS>SUBSTRUCTURE
     1  ZZL      1

