@<TRIPOS>MOLECULE
2wtv_ligand_008
    48    52
SMALL
GAST_HUCK
****
This file was generated by PARSER (from files_GN.cpp)

@<TRIPOS>ATOM
      1 C13         7.0857   -9.5542   -5.7745 C.3         1 ZZL       0.0407
      2 C15         8.6816   -9.4515   -3.9402 C.2         1 ZZL       0.0550
      3 C17         9.5381  -11.5393   -3.0830 C.ar        1 ZZL       0.1522
      4 C20        11.8051  -11.6697   -2.1862 C.ar        1 ZZL      -0.0589
      5 C21        12.0474  -10.3444   -2.6064 C.ar        1 ZZL      -0.0237
      6 C22        11.0489   -9.6139   -3.2722 C.ar        1 ZZL       0.1522
      7 C24         7.8066   -8.8645   -3.0091 C.ar        1 ZZL       0.0251
      8 C26         7.4697   -7.2435   -1.1752 C.ar        1 ZZL       0.0501
      9 C28         6.1151   -7.5979   -1.0974 C.ar        1 ZZL      -0.0388
     10 O01         3.7046  -11.9136    3.1789 O.co2       1 ZZL      -0.5638
     11 C02         4.5440  -12.7789    2.5586 C.2         1 ZZL       0.0552
     12 O03         5.7087  -13.1318    3.1805 O.co2       1 ZZL      -0.5638
     13 C04         4.3484  -13.0325    1.1856 C.ar        1 ZZL      -0.0018
     14 C05         3.0542  -12.9183    0.6128 C.ar        1 ZZL      -0.0573
     15 C06         2.8537  -13.0611   -0.7776 C.ar        1 ZZL      -0.0347
     16 C07         3.9657  -13.2777   -1.6249 C.ar        1 ZZL       0.0671
     17 N08         3.8285  -13.1647   -2.9664 N.pl3       1 ZZL      -0.2432
     18 C09         4.4941  -12.2250   -3.6793 C.ar        1 ZZL       0.2053
     19 N10         4.6415  -12.3549   -5.0234 N.ar        1 ZZL      -0.2577
     20 C11         5.4143  -11.4818   -5.7359 C.ar        1 ZZL       0.0185
     21 C12         6.0906  -10.4191   -5.0880 C.ar        1 ZZL       0.0154
     22 N14         8.3211   -9.7589   -5.1444 N.2         1 ZZL      -0.3323
     23 C16         9.7532  -10.1835   -3.4692 C.ar        1 ZZL       0.0838
     24 F18         8.3899  -12.1371   -3.2901 F           1 ZZL      -0.1759
     25 C19        10.5553  -12.2753   -2.4622 C.ar        1 ZZL      -0.0237
     26 F23        11.3564   -8.4380   -3.7778 F           1 ZZL      -0.1759
     27 C25         8.3141   -7.8629   -2.1119 C.ar        1 ZZL      -0.0267
     28 CL1         8.0911   -6.0625   -0.1219 Cl          1 ZZL      -0.0667
     29 C29         5.5969   -8.5911   -1.9470 C.ar        1 ZZL      -0.0425
     30 C30         6.4301   -9.2283   -2.8981 C.ar        1 ZZL       0.0182
     31 C31         5.8457  -10.2535   -3.7010 C.ar        1 ZZL       0.0633
     32 N32         5.0842  -11.1776   -3.0602 N.ar        1 ZZL      -0.2522
     33 C33         5.2520  -13.4488   -1.0540 C.ar        1 ZZL      -0.0347
     34 C34         5.4443  -13.3341    0.3378 C.ar        1 ZZL      -0.0573
     35 H1          6.8006   -8.4972   -5.7178 H           1 ZZL       0.0550
     36 H2          7.1947   -9.8122   -6.8308 H           1 ZZL       0.0550
     37 H3         12.5367  -12.2031   -1.7338 H           1 ZZL       0.0651
     38 H4         12.9687   -9.9348   -2.4410 H           1 ZZL       0.0588
     39 H5          5.4926   -7.1519   -0.4179 H           1 ZZL       0.0679
     40 H6          2.2455  -12.7087    1.2147 H           1 ZZL       0.0621
     41 H7          1.9189  -12.9486   -1.1811 H           1 ZZL       0.0543
     42 H8          3.3208  -13.8554   -3.4250 H           1 ZZL       0.2170
     43 H9          5.5339  -11.6425   -6.7315 H           1 ZZL       0.0835
     44 H10        10.3873  -13.2423   -2.1690 H           1 ZZL       0.0588
     45 H11         9.2990   -7.5892   -2.1362 H           1 ZZL       0.0697
     46 H12         4.6059   -8.8374   -1.8775 H           1 ZZL       0.0662
     47 H13         6.0524  -13.6229   -1.6754 H           1 ZZL       0.0543
     48 H14         6.3927  -13.4028    0.7215 H           1 ZZL       0.0621
@<TRIPOS>BOND
     1    21     1   1
     2     1    22   1
     3     2     7   1
     4    22     2   2
     5     2    23   1
     6    23     3  ar
     7     3    24   1
     8     3    25  ar
     9     5     4  ar
    10    25     4  ar
    11     6     5  ar
    12    23     6  ar
    13     6    26   1
    14     7    27  ar
    15     7    30  ar
    16     8     9  ar
    17    27     8  ar
    18     8    28   1
    19     9    29  ar
    20    11    10  ar
    21    11    12  ar
    22    13    11   1
    23    14    13  ar
    24    13    34  ar
    25    15    14  ar
    26    16    15  ar
    27    17    16   1
    28    16    33  ar
    29    18    17   1
    30    19    18  ar
    31    18    32  ar
    32    20    19  ar
    33    20    21  ar
    34    21    31  ar
    35    29    30  ar
    36    30    31   1
    37    31    32  ar
    38    33    34  ar
    39     1    35   1
    40     1    36   1
    41     4    37   1
    42     5    38   1
    43     9    39   1
    44    14    40   1
    45    15    41   1
    46    17    42   1
    47    20    43   1
    48    25    44   1
    49    27    45   1
    50    29    46   1
    51    33    47   1
    52    34    48   1
@<TRIPOS>SUBSTRUCTURE
     1  ZZL      1

