@<TRIPOS>MOLECULE
2wtv_ligand_060
    48    52
SMALL
GAST_HUCK
****
This file was generated by PARSER (from files_GN.cpp)

@<TRIPOS>ATOM
      1 C13         4.6111   -9.5354   -1.0477 C.3         1 ZZL       0.0407
      2 C15         4.2434   -9.5625   -3.4467 C.2         1 ZZL       0.0550
      3 C17         2.6650  -10.7871   -4.8710 C.ar        1 ZZL       0.1522
      4 C20         1.0587   -9.5549   -6.2292 C.ar        1 ZZL      -0.0589
      5 C21         1.5164   -8.3487   -5.6728 C.ar        1 ZZL      -0.0237
      6 C22         2.5795   -8.3488   -4.7495 C.ar        1 ZZL       0.1522
      7 C24         5.6020   -9.6112   -3.8454 C.ar        1 ZZL       0.0251
      8 C26         7.2893  -10.5180   -5.4129 C.ar        1 ZZL       0.0501
      9 C28         8.3111   -9.9047   -4.6859 C.ar        1 ZZL      -0.0388
     10 O01        12.7291   -4.1197   -4.8973 O.co2       1 ZZL      -0.5638
     11 C02        11.9747   -3.2380   -4.2067 C.2         1 ZZL       0.0552
     12 O03        12.2779   -1.9241   -4.3425 O.co2       1 ZZL      -0.5638
     13 C04        10.9237   -3.6754   -3.3568 C.ar        1 ZZL      -0.0018
     14 C05         9.8949   -2.7886   -2.9684 C.ar        1 ZZL      -0.0573
     15 C06         8.8554   -3.2187   -2.1168 C.ar        1 ZZL      -0.0347
     16 C07         8.8174   -4.5455   -1.6428 C.ar        1 ZZL       0.0671
     17 N08         7.8085   -4.9244   -0.8048 N.pl3       1 ZZL      -0.2432
     18 C09         7.0937   -6.0705   -0.8775 C.ar        1 ZZL       0.2053
     19 N10         6.1699   -6.3082    0.0836 N.ar        1 ZZL      -0.2577
     20 C11         5.3793   -7.4072    0.0646 C.ar        1 ZZL       0.0185
     21 C12         5.4801   -8.3399   -0.9911 C.ar        1 ZZL       0.0154
     22 N14         3.8640   -9.5224   -2.2169 N.2         1 ZZL      -0.3323
     23 C16         3.1825   -9.5704   -4.3519 C.ar        1 ZZL       0.0838
     24 F18         3.1399  -11.9500   -4.5009 F           1 ZZL      -0.1759
     25 C19         1.6310  -10.7729   -5.8277 C.ar        1 ZZL      -0.0237
     26 F23         2.9864   -7.1996   -4.2713 F           1 ZZL      -0.1759
     27 C25         5.9600  -10.3589   -5.0003 C.ar        1 ZZL      -0.0267
     28 CL1         7.6489  -11.4708   -6.7619 Cl          1 ZZL      -0.0667
     29 C29         7.9977   -9.1252   -3.5655 C.ar        1 ZZL      -0.0425
     30 C30         6.6571   -8.9526   -3.1252 C.ar        1 ZZL       0.0182
     31 C31         6.4482   -8.0945   -1.9987 C.ar        1 ZZL       0.0633
     32 N32         7.2115   -6.9700   -1.8887 N.ar        1 ZZL      -0.2522
     33 C33         9.8648   -5.4229   -1.9997 C.ar        1 ZZL      -0.0347
     34 C34        10.9032   -4.9943   -2.8475 C.ar        1 ZZL      -0.0573
     35 H1          3.9123   -9.5541   -0.2138 H           1 ZZL       0.0550
     36 H2          5.2191  -10.4427   -0.9936 H           1 ZZL       0.0550
     37 H3          0.2973   -9.5468   -6.9120 H           1 ZZL       0.0651
     38 H4          1.0766   -7.4678   -5.9494 H           1 ZZL       0.0588
     39 H5          9.2841  -10.0257   -4.9726 H           1 ZZL       0.0679
     40 H6          9.8666   -1.8232   -3.3167 H           1 ZZL       0.0621
     41 H7          8.1128   -2.5641   -1.8564 H           1 ZZL       0.0543
     42 H8          7.5450   -4.2889   -0.1207 H           1 ZZL       0.2170
     43 H9          4.7104   -7.5365    0.8276 H           1 ZZL       0.0835
     44 H10         1.2914  -11.6493   -6.2344 H           1 ZZL       0.0588
     45 H11         5.2576  -10.8316   -5.5625 H           1 ZZL       0.0697
     46 H12         8.7765   -8.6956   -3.0617 H           1 ZZL       0.0662
     47 H13         9.9002   -6.3742   -1.6284 H           1 ZZL       0.0543
     48 H14        11.6560   -5.6486   -3.0747 H           1 ZZL       0.0621
@<TRIPOS>BOND
     1    21     1   1
     2     1    22   1
     3     2     7   1
     4    22     2   2
     5     2    23   1
     6    23     3  ar
     7     3    24   1
     8     3    25  ar
     9     5     4  ar
    10    25     4  ar
    11     6     5  ar
    12    23     6  ar
    13     6    26   1
    14     7    27  ar
    15     7    30  ar
    16     8     9  ar
    17    27     8  ar
    18     8    28   1
    19     9    29  ar
    20    11    10  ar
    21    11    12  ar
    22    13    11   1
    23    14    13  ar
    24    13    34  ar
    25    15    14  ar
    26    16    15  ar
    27    17    16   1
    28    16    33  ar
    29    18    17   1
    30    19    18  ar
    31    18    32  ar
    32    20    19  ar
    33    20    21  ar
    34    21    31  ar
    35    29    30  ar
    36    30    31   1
    37    31    32  ar
    38    33    34  ar
    39     1    35   1
    40     1    36   1
    41     4    37   1
    42     5    38   1
    43     9    39   1
    44    14    40   1
    45    15    41   1
    46    17    42   1
    47    20    43   1
    48    25    44   1
    49    27    45   1
    50    29    46   1
    51    33    47   1
    52    34    48   1
@<TRIPOS>SUBSTRUCTURE
     1  ZZL      1

