@<TRIPOS>MOLECULE
2wtv_ligand_041
    48    52
SMALL
GAST_HUCK
****
This file was generated by PARSER (from files_GN.cpp)

@<TRIPOS>ATOM
      1 C13        12.6783   -4.9458    1.2407 C.3         1 ZZL       0.0407
      2 C15        14.1996   -6.2930   -0.0827 C.2         1 ZZL       0.0550
      3 C17        16.1646   -7.3374    0.9340 C.ar        1 ZZL       0.1522
      4 C20        16.8400   -9.5798    0.2592 C.ar        1 ZZL      -0.0589
      5 C21        15.7577   -9.6374   -0.6366 C.ar        1 ZZL      -0.0237
      6 C22        14.8795   -8.5450   -0.7568 C.ar        1 ZZL       0.1522
      7 C24        13.9699   -5.6450   -1.3140 C.ar        1 ZZL       0.0251
      8 C26        14.9489   -4.7710   -3.4040 C.ar        1 ZZL       0.0501
      9 C28        13.6849   -4.3243   -3.8141 C.ar        1 ZZL      -0.0388
     10 O01         2.3772   -7.2075    1.2220 O.co2       1 ZZL      -0.5638
     11 C02         2.6908   -6.5148    0.1003 C.2         1 ZZL       0.0552
     12 O03         1.6604   -5.9089   -0.5333 O.co2       1 ZZL      -0.5638
     13 C04         4.0258   -6.4308   -0.3731 C.ar        1 ZZL      -0.0018
     14 C05         5.0795   -7.0661    0.3256 C.ar        1 ZZL      -0.0573
     15 C06         6.4112   -6.9471   -0.1121 C.ar        1 ZZL      -0.0347
     16 C07         6.7372   -6.1900   -1.2598 C.ar        1 ZZL       0.0671
     17 N08         8.0154   -6.0310   -1.7214 N.pl3       1 ZZL      -0.2432
     18 C09         9.1225   -5.7964   -0.9742 C.ar        1 ZZL       0.2053
     19 N10         9.0960   -5.6673    0.3779 N.ar        1 ZZL      -0.2577
     20 C11        10.2081   -5.3999    1.1014 C.ar        1 ZZL       0.0185
     21 C12        11.4519   -5.2359    0.4580 C.ar        1 ZZL       0.0154
     22 N14        13.6088   -5.9468    1.0116 N.2         1 ZZL      -0.3323
     23 C16        15.0682   -7.3797    0.0344 C.ar        1 ZZL       0.0838
     24 F18        16.4131   -6.2784    1.6648 F           1 ZZL      -0.1759
     25 C19        17.0441   -8.4288    1.0402 C.ar        1 ZZL      -0.0237
     26 F23        13.8791   -8.6573   -1.5954 F           1 ZZL      -0.1759
     27 C25        15.0855   -5.4228   -2.1684 C.ar        1 ZZL      -0.0267
     28 CL1        16.3056   -4.5093   -4.3805 Cl          1 ZZL      -0.0667
     29 C29        12.5665   -4.5386   -2.9922 C.ar        1 ZZL      -0.0425
     30 C30        12.6779   -5.1865   -1.7344 C.ar        1 ZZL       0.0182
     31 C31        11.4845   -5.3579   -0.9586 C.ar        1 ZZL       0.0633
     32 N32        10.3132   -5.6240   -1.6011 N.ar        1 ZZL      -0.2522
     33 C33         5.6803   -5.6029   -1.9853 C.ar        1 ZZL      -0.0347
     34 C34         4.3480   -5.6950   -1.5387 C.ar        1 ZZL      -0.0573
     35 H1         12.4791   -4.9153    2.3138 H           1 ZZL       0.0550
     36 H2         13.0878   -3.9754    0.9520 H           1 ZZL       0.0550
     37 H3         17.4767  -10.3734    0.3437 H           1 ZZL       0.0651
     38 H4         15.6136  -10.4806   -1.1964 H           1 ZZL       0.0588
     39 H5         13.5717   -3.8343   -4.7040 H           1 ZZL       0.0679
     40 H6          4.8920   -7.6280    1.1600 H           1 ZZL       0.0621
     41 H7          7.1399   -7.4349    0.4066 H           1 ZZL       0.0543
     42 H8          8.1324   -5.9754   -2.6890 H           1 ZZL       0.2170
     43 H9         10.1176   -5.3089    2.1138 H           1 ZZL       0.0835
     44 H10        17.8378   -8.3904    1.6834 H           1 ZZL       0.0588
     45 H11        16.0238   -5.7165   -1.8797 H           1 ZZL       0.0697
     46 H12        11.6618   -4.1887   -3.3209 H           1 ZZL       0.0662
     47 H13         5.8789   -5.0759   -2.8379 H           1 ZZL       0.0543
     48 H14         3.6211   -5.2121   -2.0703 H           1 ZZL       0.0621
@<TRIPOS>BOND
     1    21     1   1
     2     1    22   1
     3     2     7   1
     4    22     2   2
     5     2    23   1
     6    23     3  ar
     7     3    24   1
     8     3    25  ar
     9     5     4  ar
    10    25     4  ar
    11     6     5  ar
    12    23     6  ar
    13     6    26   1
    14     7    27  ar
    15     7    30  ar
    16     8     9  ar
    17    27     8  ar
    18     8    28   1
    19     9    29  ar
    20    11    10  ar
    21    11    12  ar
    22    13    11   1
    23    14    13  ar
    24    13    34  ar
    25    15    14  ar
    26    16    15  ar
    27    17    16   1
    28    16    33  ar
    29    18    17   1
    30    19    18  ar
    31    18    32  ar
    32    20    19  ar
    33    20    21  ar
    34    21    31  ar
    35    29    30  ar
    36    30    31   1
    37    31    32  ar
    38    33    34  ar
    39     1    35   1
    40     1    36   1
    41     4    37   1
    42     5    38   1
    43     9    39   1
    44    14    40   1
    45    15    41   1
    46    17    42   1
    47    20    43   1
    48    25    44   1
    49    27    45   1
    50    29    46   1
    51    33    47   1
    52    34    48   1
@<TRIPOS>SUBSTRUCTURE
     1  ZZL      1

