@<TRIPOS>MOLECULE
2wtv_ligand_066
    48    52
SMALL
GAST_HUCK
****
This file was generated by PARSER (from files_GN.cpp)

@<TRIPOS>ATOM
      1 C13         6.6292  -12.9968   -1.3292 C.3         1 ZZL       0.0407
      2 C15         7.2012  -11.5513   -3.1955 C.2         1 ZZL       0.0550
      3 C17         6.8898   -9.1223   -3.3626 C.ar        1 ZZL       0.1522
      4 C20         5.7530   -8.1661   -5.2990 C.ar        1 ZZL      -0.0589
      5 C21         5.5792   -9.4551   -5.8293 C.ar        1 ZZL      -0.0237
      6 C22         6.0599  -10.5823   -5.1310 C.ar        1 ZZL       0.1522
      7 C24         8.3764  -12.2310   -3.5856 C.ar        1 ZZL       0.0251
      8 C26        10.6938  -12.0527   -4.4184 C.ar        1 ZZL       0.0501
      9 C28        10.8194  -13.4482   -4.3898 C.ar        1 ZZL      -0.0388
     10 O01         2.0768  -22.4374   -2.4237 O.co2       1 ZZL      -0.5638
     11 C02         2.4734  -22.0091   -3.6415 C.2         1 ZZL       0.0552
     12 O03         1.9805  -22.6384   -4.7301 O.co2       1 ZZL      -0.5638
     13 C04         3.3901  -20.9476   -3.7703 C.ar        1 ZZL      -0.0018
     14 C05         4.7361  -21.1940   -4.1198 C.ar        1 ZZL      -0.0573
     15 C06         5.6537  -20.1299   -4.2505 C.ar        1 ZZL      -0.0347
     16 C07         5.2560  -18.7942   -4.0306 C.ar        1 ZZL       0.0671
     17 N08         6.2059  -17.8171   -4.1975 N.pl3       1 ZZL      -0.2432
     18 C09         6.3256  -16.6535   -3.5140 C.ar        1 ZZL       0.2053
     19 N10         5.4919  -16.3596   -2.4900 N.ar        1 ZZL      -0.2577
     20 C11         5.5653  -15.2128   -1.7935 C.ar        1 ZZL       0.0185
     21 C12         6.5605  -14.2635   -2.0914 C.ar        1 ZZL       0.0154
     22 N14         6.4717  -11.9232   -2.2013 N.2         1 ZZL      -0.3323
     23 C16         6.7247  -10.4323   -3.8854 C.ar        1 ZZL       0.0838
     24 F18         7.5145   -8.9060   -2.2355 F           1 ZZL      -0.1759
     25 C19         6.4066   -8.0005   -4.0670 C.ar        1 ZZL      -0.0237
     26 F23         5.8461  -11.7595   -5.6585 F           1 ZZL      -0.1759
     27 C25         9.4870  -11.4573   -4.0162 C.ar        1 ZZL      -0.0267
     28 CL1        11.9908  -11.0931   -4.9310 Cl          1 ZZL      -0.0667
     29 C29         9.7433  -14.2383   -3.9573 C.ar        1 ZZL      -0.0425
     30 C30         8.5129  -13.6616   -3.5478 C.ar        1 ZZL       0.0182
     31 C31         7.4632  -14.5630   -3.1479 C.ar        1 ZZL       0.0633
     32 N32         7.3070  -15.7558   -3.8031 N.ar        1 ZZL      -0.2522
     33 C33         3.8961  -18.5494   -3.7111 C.ar        1 ZZL      -0.0347
     34 C34         2.9774  -19.6121   -3.5716 C.ar        1 ZZL      -0.0573
     35 H1          7.5888  -12.9332   -0.8073 H           1 ZZL       0.0550
     36 H2          5.8398  -12.9331   -0.5761 H           1 ZZL       0.0550
     37 H3          5.4013   -7.3495   -5.8079 H           1 ZZL       0.0651
     38 H4          5.0947   -9.5681   -6.7244 H           1 ZZL       0.0588
     39 H5         11.6942  -13.8945   -4.6773 H           1 ZZL       0.0679
     40 H6          5.0706  -22.1474   -4.2750 H           1 ZZL       0.0621
     41 H7          6.6253  -20.3366   -4.4998 H           1 ZZL       0.0543
     42 H8          6.8985  -18.0157   -4.8456 H           1 ZZL       0.2170
     43 H9          4.8792  -15.0718   -1.0645 H           1 ZZL       0.0835
     44 H10         6.5319   -7.0572   -3.6884 H           1 ZZL       0.0588
     45 H11         9.4314  -10.4362   -4.0262 H           1 ZZL       0.0697
     46 H12         9.8836  -15.2531   -3.9325 H           1 ZZL       0.0662
     47 H13         3.5473  -17.5925   -3.6040 H           1 ZZL       0.0543
     48 H14         2.0031  -19.3932   -3.3478 H           1 ZZL       0.0621
@<TRIPOS>BOND
     1    21     1   1
     2     1    22   1
     3     2     7   1
     4    22     2   2
     5     2    23   1
     6    23     3  ar
     7     3    24   1
     8     3    25  ar
     9     5     4  ar
    10    25     4  ar
    11     6     5  ar
    12    23     6  ar
    13     6    26   1
    14     7    27  ar
    15     7    30  ar
    16     8     9  ar
    17    27     8  ar
    18     8    28   1
    19     9    29  ar
    20    11    10  ar
    21    11    12  ar
    22    13    11   1
    23    14    13  ar
    24    13    34  ar
    25    15    14  ar
    26    16    15  ar
    27    17    16   1
    28    16    33  ar
    29    18    17   1
    30    19    18  ar
    31    18    32  ar
    32    20    19  ar
    33    20    21  ar
    34    21    31  ar
    35    29    30  ar
    36    30    31   1
    37    31    32  ar
    38    33    34  ar
    39     1    35   1
    40     1    36   1
    41     4    37   1
    42     5    38   1
    43     9    39   1
    44    14    40   1
    45    15    41   1
    46    17    42   1
    47    20    43   1
    48    25    44   1
    49    27    45   1
    50    29    46   1
    51    33    47   1
    52    34    48   1
@<TRIPOS>SUBSTRUCTURE
     1  ZZL      1

