@<TRIPOS>MOLECULE
2wtv_ligand_006
    48    52
SMALL
GAST_HUCK
****
This file was generated by PARSER (from files_GN.cpp)

@<TRIPOS>ATOM
      1 C13        12.4572  -13.5770   -2.2170 C.3         1 ZZL       0.0407
      2 C15        13.4488  -14.2700   -4.3318 C.2         1 ZZL       0.0550
      3 C17        14.5002  -16.2987   -5.2438 C.ar        1 ZZL       0.1522
      4 C20        16.8829  -16.2910   -5.7659 C.ar        1 ZZL      -0.0589
      5 C21        16.9837  -14.9787   -5.2771 C.ar        1 ZZL      -0.0237
      6 C22        15.8418  -14.3043   -4.8030 C.ar        1 ZZL       0.1522
      7 C24        12.4943  -13.6617   -5.1944 C.ar        1 ZZL       0.0251
      8 C26        11.1885  -13.8202   -7.2911 C.ar        1 ZZL       0.0501
      9 C28        10.5570  -12.6021   -7.0003 C.ar        1 ZZL      -0.0388
     10 O01        10.4528   -5.2893   -8.6454 O.co2       1 ZZL      -0.5638
     11 C02        11.3452   -4.8765   -7.6985 C.2         1 ZZL       0.0552
     12 O03        11.9720   -3.6923   -7.8951 O.co2       1 ZZL      -0.5638
     13 C04        11.6000   -5.6635   -6.5612 C.ar        1 ZZL      -0.0018
     14 C05        11.9181   -7.0318   -6.7074 C.ar        1 ZZL      -0.0573
     15 C06        12.1975   -7.8262   -5.5886 C.ar        1 ZZL      -0.0347
     16 C07        12.1229   -7.2958   -4.2799 C.ar        1 ZZL       0.0671
     17 N08        12.3721   -8.0133   -3.1329 N.pl3       1 ZZL      -0.2432
     18 C09        12.4000   -9.3548   -2.9512 C.ar        1 ZZL       0.2053
     19 N10        12.6833   -9.8412   -1.7200 N.ar        1 ZZL      -0.2577
     20 C11        12.7261  -11.1763   -1.4592 C.ar        1 ZZL       0.0185
     21 C12        12.4388  -12.1139   -2.4821 C.ar        1 ZZL       0.0154
     22 N14        13.3763  -14.2019   -3.0453 N.2         1 ZZL      -0.3323
     23 C16        14.5772  -14.9500   -4.8044 C.ar        1 ZZL       0.0838
     24 F18        13.3830  -16.9748   -5.1855 F           1 ZZL      -0.1759
     25 C19        15.6429  -16.9471   -5.7489 C.ar        1 ZZL      -0.0237
     26 F23        15.9860  -13.0805   -4.3640 F           1 ZZL      -0.1759
     27 C25        12.1566  -14.3317   -6.4057 C.ar        1 ZZL      -0.0267
     28 CL1        10.7749  -14.6772   -8.6951 Cl          1 ZZL      -0.0667
     29 C29        10.8856  -11.9180   -5.8251 C.ar        1 ZZL      -0.0425
     30 C30        11.8424  -12.4172   -4.9071 C.ar        1 ZZL       0.0182
     31 C31        12.1333  -11.6067   -3.7686 C.ar        1 ZZL       0.0633
     32 N32        12.1301  -10.2543   -3.9307 N.ar        1 ZZL      -0.2522
     33 C33        11.8402   -5.9207   -4.1387 C.ar        1 ZZL      -0.0347
     34 C34        11.5914   -5.1138   -5.2609 C.ar        1 ZZL      -0.0573
     35 H1         11.4641  -13.9975   -2.3871 H           1 ZZL       0.0550
     36 H2         12.7367  -13.7969   -1.1818 H           1 ZZL       0.0550
     37 H3         17.7136  -16.7729   -6.1145 H           1 ZZL       0.0651
     38 H4         17.8981  -14.5145   -5.2658 H           1 ZZL       0.0588
     39 H5          9.8567  -12.2293   -7.6387 H           1 ZZL       0.0679
     40 H6         11.9829   -7.4487   -7.6412 H           1 ZZL       0.0621
     41 H7         12.4865   -8.7926   -5.7447 H           1 ZZL       0.0543
     42 H8         12.4839   -7.4872   -2.3215 H           1 ZZL       0.2170
     43 H9         12.9647  -11.4784   -0.5109 H           1 ZZL       0.0835
     44 H10        15.5782  -17.9105   -6.0918 H           1 ZZL       0.0588
     45 H11        12.5842  -15.2230   -6.6591 H           1 ZZL       0.0697
     46 H12        10.3953  -11.0349   -5.6457 H           1 ZZL       0.0662
     47 H13        11.7939   -5.5003   -3.2004 H           1 ZZL       0.0543
     48 H14        11.3699   -4.1175   -5.1166 H           1 ZZL       0.0621
@<TRIPOS>BOND
     1    21     1   1
     2     1    22   1
     3     2     7   1
     4    22     2   2
     5     2    23   1
     6    23     3  ar
     7     3    24   1
     8     3    25  ar
     9     5     4  ar
    10    25     4  ar
    11     6     5  ar
    12    23     6  ar
    13     6    26   1
    14     7    27  ar
    15     7    30  ar
    16     8     9  ar
    17    27     8  ar
    18     8    28   1
    19     9    29  ar
    20    11    10  ar
    21    11    12  ar
    22    13    11   1
    23    14    13  ar
    24    13    34  ar
    25    15    14  ar
    26    16    15  ar
    27    17    16   1
    28    16    33  ar
    29    18    17   1
    30    19    18  ar
    31    18    32  ar
    32    20    19  ar
    33    20    21  ar
    34    21    31  ar
    35    29    30  ar
    36    30    31   1
    37    31    32  ar
    38    33    34  ar
    39     1    35   1
    40     1    36   1
    41     4    37   1
    42     5    38   1
    43     9    39   1
    44    14    40   1
    45    15    41   1
    46    17    42   1
    47    20    43   1
    48    25    44   1
    49    27    45   1
    50    29    46   1
    51    33    47   1
    52    34    48   1
@<TRIPOS>SUBSTRUCTURE
     1  ZZL      1

