@<TRIPOS>MOLECULE
2wtv_ligand_056
    48    52
SMALL
GAST_HUCK
****
This file was generated by PARSER (from files_GN.cpp)

@<TRIPOS>ATOM
      1 C13        11.8692   -7.3514   -1.9841 C.3         1 ZZL       0.0407
      2 C15        11.7733   -7.5278   -4.4063 C.2         1 ZZL       0.0550
      3 C17        11.7562   -5.5828   -5.8719 C.ar        1 ZZL       0.1522
      4 C20        13.2511   -5.4667   -7.7937 C.ar        1 ZZL      -0.0589
      5 C21        13.7993   -6.7117   -7.4396 C.ar        1 ZZL      -0.0237
      6 C22        13.3428   -7.3858   -6.2879 C.ar        1 ZZL       0.1522
      7 C24        10.9143   -8.6545   -4.4756 C.ar        1 ZZL       0.0251
      8 C26        10.3507  -10.7901   -5.5954 C.ar        1 ZZL       0.0501
      9 C28         9.3227  -11.0230   -4.6732 C.ar        1 ZZL      -0.0388
     10 O01         1.3832   -8.3984   -4.7393 O.co2       1 ZZL      -0.5638
     11 C02         1.8682   -8.9099   -3.5827 C.2         1 ZZL       0.0552
     12 O03         1.1478   -9.9083   -3.0220 O.co2       1 ZZL      -0.5638
     13 C04         3.0375   -8.3922   -2.9658 C.ar        1 ZZL      -0.0018
     14 C05         3.6283   -7.1881   -3.4240 C.ar        1 ZZL      -0.0573
     15 C06         4.7617   -6.6499   -2.7856 C.ar        1 ZZL      -0.0347
     16 C07         5.3443   -7.3196   -1.6895 C.ar        1 ZZL       0.0671
     17 N08         6.3741   -6.7455   -1.0200 N.pl3       1 ZZL      -0.2432
     18 C09         7.6851   -6.9492   -1.2748 C.ar        1 ZZL       0.2053
     19 N10         8.5801   -6.2479   -0.5400 N.ar        1 ZZL      -0.2577
     20 C11         9.9128   -6.3653   -0.7432 C.ar        1 ZZL       0.0185
     21 C12        10.4133   -7.2347   -1.7391 C.ar        1 ZZL       0.0154
     22 N14        12.1516   -6.9996   -3.2938 N.2         1 ZZL      -0.3323
     23 C16        12.2683   -6.8593   -5.5251 C.ar        1 ZZL       0.0838
     24 F18        10.8380   -4.9956   -5.1504 F           1 ZZL      -0.1759
     25 C19        12.2464   -4.8928   -6.9969 C.ar        1 ZZL      -0.0237
     26 F23        13.9389   -8.4963   -5.9451 F           1 ZZL      -0.1759
     27 C25        11.1138   -9.6121   -5.5078 C.ar        1 ZZL      -0.0267
     28 CL1        10.6943  -11.9462   -6.7842 Cl          1 ZZL      -0.0667
     29 C29         9.0660  -10.0768   -3.6716 C.ar        1 ZZL      -0.0425
     30 C30         9.8433   -8.8935   -3.5470 C.ar        1 ZZL       0.0182
     31 C31         9.4771   -7.9803   -2.5027 C.ar        1 ZZL       0.0633
     32 N32         8.1528   -7.7963   -2.2305 N.ar        1 ZZL      -0.2522
     33 C33         4.7742   -8.5219   -1.2325 C.ar        1 ZZL      -0.0347
     34 C34         3.6361   -9.0540   -1.8653 C.ar        1 ZZL      -0.0573
     35 H1         12.2022   -8.3753   -1.8035 H           1 ZZL       0.0550
     36 H2         12.4431   -6.6920   -1.3264 H           1 ZZL       0.0550
     37 H3         13.5957   -4.9687   -8.6206 H           1 ZZL       0.0651
     38 H4         14.5415   -7.1134   -8.0190 H           1 ZZL       0.0588
     39 H5          8.7539  -11.8702   -4.7174 H           1 ZZL       0.0679
     40 H6          3.2296   -6.6742   -4.2123 H           1 ZZL       0.0621
     41 H7          5.1546   -5.7665   -3.1150 H           1 ZZL       0.0543
     42 H8          6.1460   -6.0977   -0.3330 H           1 ZZL       0.2170
     43 H9         10.5425   -5.8045   -0.1609 H           1 ZZL       0.0835
     44 H10        11.8788   -3.9695   -7.2381 H           1 ZZL       0.0588
     45 H11        11.8505   -9.4776   -6.2036 H           1 ZZL       0.0697
     46 H12         8.3035  -10.2714   -3.0137 H           1 ZZL       0.0662
     47 H13         5.1741   -9.0076   -0.4264 H           1 ZZL       0.0543
     48 H14         3.2403   -9.9240   -1.4999 H           1 ZZL       0.0621
@<TRIPOS>BOND
     1    21     1   1
     2     1    22   1
     3     2     7   1
     4    22     2   2
     5     2    23   1
     6    23     3  ar
     7     3    24   1
     8     3    25  ar
     9     5     4  ar
    10    25     4  ar
    11     6     5  ar
    12    23     6  ar
    13     6    26   1
    14     7    27  ar
    15     7    30  ar
    16     8     9  ar
    17    27     8  ar
    18     8    28   1
    19     9    29  ar
    20    11    10  ar
    21    11    12  ar
    22    13    11   1
    23    14    13  ar
    24    13    34  ar
    25    15    14  ar
    26    16    15  ar
    27    17    16   1
    28    16    33  ar
    29    18    17   1
    30    19    18  ar
    31    18    32  ar
    32    20    19  ar
    33    20    21  ar
    34    21    31  ar
    35    29    30  ar
    36    30    31   1
    37    31    32  ar
    38    33    34  ar
    39     1    35   1
    40     1    36   1
    41     4    37   1
    42     5    38   1
    43     9    39   1
    44    14    40   1
    45    15    41   1
    46    17    42   1
    47    20    43   1
    48    25    44   1
    49    27    45   1
    50    29    46   1
    51    33    47   1
    52    34    48   1
@<TRIPOS>SUBSTRUCTURE
     1  ZZL      1

