@<TRIPOS>MOLECULE
2wtv_ligand_091
    48    52
SMALL
GAST_HUCK
****
This file was generated by PARSER (from files_GN.cpp)

@<TRIPOS>ATOM
      1 C13         0.7747  -11.1505   -2.8479 C.3         1 ZZL       0.0407
      2 C15         1.7027   -8.9905   -3.5281 C.2         1 ZZL       0.0550
      3 C17         0.3417   -7.8304   -5.2608 C.ar        1 ZZL       0.1522
      4 C20         1.2336   -5.9096   -6.4804 C.ar        1 ZZL      -0.0589
      5 C21         2.4323   -6.0131   -5.7500 C.ar        1 ZZL      -0.0237
      6 C22         2.6015   -7.0550   -4.8144 C.ar        1 ZZL       0.1522
      7 C24         2.6301   -8.9127   -2.4707 C.ar        1 ZZL       0.0251
      8 C26         3.7250   -7.4822   -0.7723 C.ar        1 ZZL       0.0501
      9 C28         4.6000   -8.5258   -0.4667 C.ar        1 ZZL      -0.0388
     10 O01        11.1677  -12.4146   -0.8815 O.co2       1 ZZL      -0.5638
     11 C02        10.7931  -13.2789   -1.8524 C.2         1 ZZL       0.0552
     12 O03        11.7868  -13.9397   -2.4844 O.co2       1 ZZL      -0.5638
     13 C04         9.4257  -13.5314   -2.1181 C.ar        1 ZZL      -0.0018
     14 C05         9.0426  -14.3544   -3.1997 C.ar        1 ZZL      -0.0573
     15 C06         7.6858  -14.6300   -3.4604 C.ar        1 ZZL      -0.0347
     16 C07         6.6752  -14.0457   -2.6785 C.ar        1 ZZL       0.0671
     17 N08         5.3880  -14.3272   -3.0095 N.pl3       1 ZZL      -0.2432
     18 C09         4.3155  -13.4966   -2.9563 C.ar        1 ZZL       0.2053
     19 N10         3.1210  -14.0118   -3.3326 N.ar        1 ZZL      -0.2577
     20 C11         1.9941  -13.2771   -3.3187 C.ar        1 ZZL       0.0185
     21 C12         2.0241  -11.9337   -2.9047 C.ar        1 ZZL       0.0154
     22 N14         0.9253  -10.0145   -3.6295 N.2         1 ZZL      -0.3323
     23 C16         1.5544   -7.9821   -4.5180 C.ar        1 ZZL       0.0838
     24 F18        -0.7117   -8.5967   -5.0669 F           1 ZZL      -0.1759
     25 C19         0.1891   -6.8243   -6.2376 C.ar        1 ZZL      -0.0237
     26 F23         3.7922   -7.1339   -4.2862 F           1 ZZL      -0.1759
     27 C25         2.7582   -7.6798   -1.8008 C.ar        1 ZZL      -0.0267
     28 CL1         3.7854   -6.0241    0.0866 Cl          1 ZZL      -0.0667
     29 C29         4.4719   -9.7750   -1.0976 C.ar        1 ZZL      -0.0425
     30 C30         3.4390  -10.0217   -2.0517 C.ar        1 ZZL       0.0182
     31 C31         3.2802  -11.3775   -2.5326 C.ar        1 ZZL       0.0633
     32 N32         4.3562  -12.1916   -2.5756 N.ar        1 ZZL      -0.2522
     33 C33         7.0470  -13.2509   -1.5680 C.ar        1 ZZL      -0.0347
     34 C34         8.4021  -12.9969   -1.2996 C.ar        1 ZZL      -0.0573
     35 H1          0.5303  -10.8653   -1.8173 H           1 ZZL       0.0550
     36 H2         -0.0804  -11.6999   -3.2485 H           1 ZZL       0.0550
     37 H3          1.1152   -5.1865   -7.1819 H           1 ZZL       0.0651
     38 H4          3.1897   -5.3516   -5.9088 H           1 ZZL       0.0588
     39 H5          5.3124   -8.4053    0.2620 H           1 ZZL       0.0679
     40 H6          9.7496  -14.7727   -3.8092 H           1 ZZL       0.0621
     41 H7          7.4458  -15.2408   -4.2392 H           1 ZZL       0.0543
     42 H8          5.2263  -15.1884   -3.4240 H           1 ZZL       0.2170
     43 H9          1.1148  -13.7287   -3.5984 H           1 ZZL       0.0835
     44 H10        -0.6914   -6.7294   -6.7458 H           1 ZZL       0.0588
     45 H11         2.1739   -6.8814   -2.0280 H           1 ZZL       0.0697
     46 H12         5.0972  -10.5191   -0.8019 H           1 ZZL       0.0662
     47 H13         6.3349  -12.8742   -0.9342 H           1 ZZL       0.0543
     48 H14         8.6330  -12.4070   -0.4935 H           1 ZZL       0.0621
@<TRIPOS>BOND
     1    21     1   1
     2     1    22   1
     3     2     7   1
     4    22     2   2
     5     2    23   1
     6    23     3  ar
     7     3    24   1
     8     3    25  ar
     9     5     4  ar
    10    25     4  ar
    11     6     5  ar
    12    23     6  ar
    13     6    26   1
    14     7    27  ar
    15     7    30  ar
    16     8     9  ar
    17    27     8  ar
    18     8    28   1
    19     9    29  ar
    20    11    10  ar
    21    11    12  ar
    22    13    11   1
    23    14    13  ar
    24    13    34  ar
    25    15    14  ar
    26    16    15  ar
    27    17    16   1
    28    16    33  ar
    29    18    17   1
    30    19    18  ar
    31    18    32  ar
    32    20    19  ar
    33    20    21  ar
    34    21    31  ar
    35    29    30  ar
    36    30    31   1
    37    31    32  ar
    38    33    34  ar
    39     1    35   1
    40     1    36   1
    41     4    37   1
    42     5    38   1
    43     9    39   1
    44    14    40   1
    45    15    41   1
    46    17    42   1
    47    20    43   1
    48    25    44   1
    49    27    45   1
    50    29    46   1
    51    33    47   1
    52    34    48   1
@<TRIPOS>SUBSTRUCTURE
     1  ZZL      1

