@<TRIPOS>MOLECULE
2wtv_ligand_002
    48    52
SMALL
GAST_HUCK
****
This file was generated by PARSER (from files_GN.cpp)

@<TRIPOS>ATOM
      1 C13         2.3482  -13.8561   -1.8543 C.3         1 ZZL       0.0407
      2 C15         1.5820  -12.0546   -3.2928 C.2         1 ZZL       0.0550
      3 C17        -0.6142  -11.2380   -3.9840 C.ar        1 ZZL       0.1522
      4 C20        -1.3259  -11.5150   -6.3036 C.ar        1 ZZL      -0.0589
      5 C21        -0.1073  -12.1476   -6.5989 C.ar        1 ZZL      -0.0237
      6 C22         0.8643  -12.3216   -5.5967 C.ar        1 ZZL       0.1522
      7 C24         2.5392  -11.0742   -2.9257 C.ar        1 ZZL       0.0251
      8 C26         3.0170   -8.6881   -2.4842 C.ar        1 ZZL       0.0501
      9 C28         4.3244   -9.0186   -2.0949 C.ar        1 ZZL      -0.0388
     10 O01        11.8280   -9.2885   -4.2164 O.co2       1 ZZL      -0.5638
     11 C02        11.1400   -9.9911   -5.1534 C.2         1 ZZL       0.0552
     12 O03        11.4074   -9.6881   -6.4476 O.co2       1 ZZL      -0.5638
     13 C04        10.2435  -11.0281   -4.7972 C.ar        1 ZZL      -0.0018
     14 C05         9.8457  -12.0035   -5.7416 C.ar        1 ZZL      -0.0573
     15 C06         8.9841  -13.0541   -5.3767 C.ar        1 ZZL      -0.0347
     16 C07         8.4525  -13.1239   -4.0771 C.ar        1 ZZL       0.0671
     17 N08         7.6226  -14.1503   -3.7547 N.pl3       1 ZZL      -0.2432
     18 C09         6.3720  -14.0304   -3.2623 C.ar        1 ZZL       0.2053
     19 N10         5.6931  -15.1625   -2.9697 N.ar        1 ZZL      -0.2577
     20 C11         4.4165  -15.1318   -2.5155 C.ar        1 ZZL       0.0185
     21 C12         3.7462  -13.9006   -2.3421 C.ar        1 ZZL       0.0154
     22 N14         1.5460  -13.2463   -2.8048 N.2         1 ZZL      -0.3323
     23 C16         0.6294  -11.8447   -4.2844 C.ar        1 ZZL       0.0838
     24 F18        -0.8720  -10.7887   -2.7823 F           1 ZZL      -0.1759
     25 C19        -1.5892  -11.0843   -4.9909 C.ar        1 ZZL      -0.0237
     26 F23         1.9749  -12.9409   -5.9127 F           1 ZZL      -0.1759
     27 C25         2.1361   -9.7082   -2.8894 C.ar        1 ZZL      -0.0267
     28 CL1         2.4985   -7.0807   -2.4493 Cl          1 ZZL      -0.0667
     29 C29         4.7517  -10.3532   -2.1410 C.ar        1 ZZL      -0.0425
     30 C30         3.8908  -11.3956   -2.5725 C.ar        1 ZZL       0.0182
     31 C31         4.4527  -12.7115   -2.6652 C.ar        1 ZZL       0.0633
     32 N32         5.7358  -12.8405   -3.1086 N.ar        1 ZZL      -0.2522
     33 C33         8.8315  -12.1464   -3.1310 C.ar        1 ZZL      -0.0347
     34 C34         9.7281  -11.1205   -3.4819 C.ar        1 ZZL      -0.0573
     35 H1          2.2983  -13.3100   -0.9100 H           1 ZZL       0.0550
     36 H2          1.9533  -14.8577   -1.6828 H           1 ZZL       0.0550
     37 H3         -2.0230  -11.3771   -7.0376 H           1 ZZL       0.0651
     38 H4          0.0664  -12.4876   -7.5450 H           1 ZZL       0.0588
     39 H5          4.9741   -8.2938   -1.7691 H           1 ZZL       0.0679
     40 H6         10.1914  -11.9742   -6.7042 H           1 ZZL       0.0621
     41 H7          8.7178  -13.7577   -6.0748 H           1 ZZL       0.0543
     42 H8          7.9316  -15.0527   -3.9725 H           1 ZZL       0.2170
     43 H9          3.9566  -16.0183   -2.2993 H           1 ZZL       0.0835
     44 H10        -2.4955  -10.6619   -4.7750 H           1 ZZL       0.0588
     45 H11         1.1734   -9.4498   -3.1260 H           1 ZZL       0.0697
     46 H12         5.7087  -10.5565   -1.8396 H           1 ZZL       0.0662
     47 H13         8.4806  -12.1969   -2.1677 H           1 ZZL       0.0543
     48 H14         9.9894  -10.4409   -2.7662 H           1 ZZL       0.0621
@<TRIPOS>BOND
     1    21     1   1
     2     1    22   1
     3     2     7   1
     4    22     2   2
     5     2    23   1
     6    23     3  ar
     7     3    24   1
     8     3    25  ar
     9     5     4  ar
    10    25     4  ar
    11     6     5  ar
    12    23     6  ar
    13     6    26   1
    14     7    27  ar
    15     7    30  ar
    16     8     9  ar
    17    27     8  ar
    18     8    28   1
    19     9    29  ar
    20    11    10  ar
    21    11    12  ar
    22    13    11   1
    23    14    13  ar
    24    13    34  ar
    25    15    14  ar
    26    16    15  ar
    27    17    16   1
    28    16    33  ar
    29    18    17   1
    30    19    18  ar
    31    18    32  ar
    32    20    19  ar
    33    20    21  ar
    34    21    31  ar
    35    29    30  ar
    36    30    31   1
    37    31    32  ar
    38    33    34  ar
    39     1    35   1
    40     1    36   1
    41     4    37   1
    42     5    38   1
    43     9    39   1
    44    14    40   1
    45    15    41   1
    46    17    42   1
    47    20    43   1
    48    25    44   1
    49    27    45   1
    50    29    46   1
    51    33    47   1
    52    34    48   1
@<TRIPOS>SUBSTRUCTURE
     1  ZZL      1

