@<TRIPOS>MOLECULE
2wtv_ligand_054
    48    52
SMALL
GAST_HUCK
****
This file was generated by PARSER (from files_GN.cpp)

@<TRIPOS>ATOM
      1 C13        11.0504  -14.4237   -3.7671 C.3         1 ZZL       0.0407
      2 C15        13.3639  -13.7668   -4.0487 C.2         1 ZZL       0.0550
      3 C17        15.1352  -12.8142   -5.4506 C.ar        1 ZZL       0.1522
      4 C20        16.5949  -14.2931   -6.7280 C.ar        1 ZZL      -0.0589
      5 C21        15.9225  -15.4101   -6.2080 C.ar        1 ZZL      -0.0237
      6 C22        14.8395  -15.2395   -5.3266 C.ar        1 ZZL       0.1522
      7 C24        13.4873  -12.9884   -2.8760 C.ar        1 ZZL       0.0251
      8 C26        14.9083  -12.2936   -0.9830 C.ar        1 ZZL       0.0501
      9 C28        13.8813  -11.4661   -0.5101 C.ar        1 ZZL      -0.0388
     10 O01         2.8380   -8.4043   -5.5716 O.co2       1 ZZL      -0.5638
     11 C02         3.7095   -7.5298   -5.0176 C.2         1 ZZL       0.0552
     12 O03         3.2524   -6.2814   -4.7482 O.co2       1 ZZL      -0.5638
     13 C04         5.0084   -7.9368   -4.6322 C.ar        1 ZZL      -0.0018
     14 C05         5.8150   -8.7045   -5.5023 C.ar        1 ZZL      -0.0573
     15 C06         7.0862   -9.1488   -5.0930 C.ar        1 ZZL      -0.0347
     16 C07         7.5679   -8.8747   -3.7934 C.ar        1 ZZL       0.0671
     17 N08         8.7843   -9.2963   -3.3471 N.pl3       1 ZZL      -0.2432
     18 C09         9.3208  -10.5269   -3.5074 C.ar        1 ZZL       0.2053
     19 N10         8.6844  -11.5360   -4.1542 N.ar        1 ZZL      -0.2577
     20 C11         9.2202  -12.7722   -4.2729 C.ar        1 ZZL       0.0185
     21 C12        10.4748  -13.0630   -3.6954 C.ar        1 ZZL       0.0154
     22 N14        12.2824  -14.3765   -4.3939 N.2         1 ZZL      -0.3323
     23 C16        14.4317  -13.9359   -4.9329 C.ar        1 ZZL       0.0838
     24 F18        14.8111  -11.5870   -5.1266 F           1 ZZL      -0.1759
     25 C19        16.2067  -12.9987   -6.3447 C.ar        1 ZZL      -0.0237
     26 F23        14.2606  -16.3129   -4.8495 F           1 ZZL      -0.1759
     27 C25        14.7120  -13.0417   -2.1555 C.ar        1 ZZL      -0.0267
     28 CL1        16.3710  -12.3877   -0.1367 Cl          1 ZZL      -0.0667
     29 C29        12.6647  -11.4002   -1.2000 C.ar        1 ZZL      -0.0425
     30 C30        12.4314  -12.1553   -2.3790 C.ar        1 ZZL       0.0182
     31 C31        11.1454  -12.0112   -3.0128 C.ar        1 ZZL       0.0633
     32 N32        10.5279  -10.7954   -2.9523 N.ar        1 ZZL      -0.2522
     33 C33         6.7806   -8.0752   -2.9428 C.ar        1 ZZL      -0.0347
     34 C34         5.5186   -7.6112   -3.3552 C.ar        1 ZZL      -0.0573
     35 H1         10.4100  -15.1012   -4.3346 H           1 ZZL       0.0550
     36 H2         11.1502  -14.8385   -2.7624 H           1 ZZL       0.0550
     37 H3         17.3736  -14.4233   -7.3800 H           1 ZZL       0.0651
     38 H4         16.2206  -16.3485   -6.4761 H           1 ZZL       0.0588
     39 H5         14.0072  -10.9150    0.3406 H           1 ZZL       0.0679
     40 H6          5.4981   -8.9178   -6.4525 H           1 ZZL       0.0621
     41 H7          7.6686   -9.6605   -5.7587 H           1 ZZL       0.0543
     42 H8          9.2621   -8.7053   -2.7442 H           1 ZZL       0.2170
     43 H9          8.7015  -13.4826   -4.7835 H           1 ZZL       0.0835
     44 H10        16.7033  -12.1924   -6.7249 H           1 ZZL       0.0588
     45 H11        15.4770  -13.6398   -2.4787 H           1 ZZL       0.0697
     46 H12        11.9348  -10.7953   -0.8144 H           1 ZZL       0.0662
     47 H13         7.1092   -7.8560   -1.9993 H           1 ZZL       0.0543
     48 H14         4.9659   -7.0572   -2.7005 H           1 ZZL       0.0621
@<TRIPOS>BOND
     1    21     1   1
     2     1    22   1
     3     2     7   1
     4    22     2   2
     5     2    23   1
     6    23     3  ar
     7     3    24   1
     8     3    25  ar
     9     5     4  ar
    10    25     4  ar
    11     6     5  ar
    12    23     6  ar
    13     6    26   1
    14     7    27  ar
    15     7    30  ar
    16     8     9  ar
    17    27     8  ar
    18     8    28   1
    19     9    29  ar
    20    11    10  ar
    21    11    12  ar
    22    13    11   1
    23    14    13  ar
    24    13    34  ar
    25    15    14  ar
    26    16    15  ar
    27    17    16   1
    28    16    33  ar
    29    18    17   1
    30    19    18  ar
    31    18    32  ar
    32    20    19  ar
    33    20    21  ar
    34    21    31  ar
    35    29    30  ar
    36    30    31   1
    37    31    32  ar
    38    33    34  ar
    39     1    35   1
    40     1    36   1
    41     4    37   1
    42     5    38   1
    43     9    39   1
    44    14    40   1
    45    15    41   1
    46    17    42   1
    47    20    43   1
    48    25    44   1
    49    27    45   1
    50    29    46   1
    51    33    47   1
    52    34    48   1
@<TRIPOS>SUBSTRUCTURE
     1  ZZL      1

