@<TRIPOS>MOLECULE
2wtv_ligand_064
    48    52
SMALL
GAST_HUCK
****
This file was generated by PARSER (from files_GN.cpp)

@<TRIPOS>ATOM
      1 C13        12.3780   -7.1739   -7.5156 C.3         1 ZZL       0.0407
      2 C15        13.6214   -9.0617   -8.4556 C.2         1 ZZL       0.0550
      3 C17        15.7349  -10.1531   -9.0945 C.ar        1 ZZL       0.1522
      4 C20        16.6387   -9.8858  -11.3528 C.ar        1 ZZL      -0.0589
      5 C21        15.5400   -9.0706  -11.6870 C.ar        1 ZZL      -0.0237
      6 C22        14.5402   -8.7943  -10.7292 C.ar        1 ZZL       0.1522
      7 C24        13.0542  -10.0546   -7.6222 C.ar        1 ZZL       0.0251
      8 C26        12.2708  -12.4038   -7.4287 C.ar        1 ZZL       0.0501
      9 C28        11.9978  -12.2103   -6.0696 C.ar        1 ZZL      -0.0388
     10 O01        14.9436  -13.6832    0.1764 O.co2       1 ZZL      -0.5638
     11 C02        14.8240  -12.4727    0.7944 C.2         1 ZZL       0.0552
     12 O03        14.8968  -12.4430    2.1590 O.co2       1 ZZL      -0.5638
     13 C04        14.5988  -11.2907    0.0739 C.ar        1 ZZL      -0.0018
     14 C05        15.3383  -10.1159    0.3309 C.ar        1 ZZL      -0.0573
     15 C06        15.1174   -8.9486   -0.4229 C.ar        1 ZZL      -0.0347
     16 C07        14.1423   -8.9099   -1.4427 C.ar        1 ZZL       0.0671
     17 N08        13.9945   -7.7575   -2.1641 N.pl3       1 ZZL      -0.2432
     18 C09        13.6094   -7.6347   -3.4517 C.ar        1 ZZL       0.2053
     19 N10        13.4670   -6.3886   -3.9939 N.ar        1 ZZL      -0.2577
     20 C11        13.0751   -6.2174   -5.2848 C.ar        1 ZZL       0.0185
     21 C12        12.8021   -7.3343   -6.1055 C.ar        1 ZZL       0.0154
     22 N14        13.2873   -7.8214   -8.3557 N.2         1 ZZL      -0.3323
     23 C16        14.6078   -9.3344   -9.4125 C.ar        1 ZZL       0.0838
     24 F18        15.9336  -10.6441   -7.9020 F           1 ZZL      -0.1759
     25 C19        16.7336  -10.4219  -10.0536 C.ar        1 ZZL      -0.0237
     26 F23        13.5538   -8.0404  -11.1298 F           1 ZZL      -0.1759
     27 C25        12.7850  -11.3331   -8.1895 C.ar        1 ZZL      -0.0267
     28 CL1        11.9815  -13.9035   -8.1515 Cl          1 ZZL      -0.0667
     29 C29        12.2182  -10.9510   -5.4915 C.ar        1 ZZL      -0.0425
     30 C30        12.7408   -9.8604   -6.2380 C.ar        1 ZZL       0.0182
     31 C31        12.9696   -8.6310   -5.5409 C.ar        1 ZZL       0.0633
     32 N32        13.3732   -8.7106   -4.2376 N.ar        1 ZZL      -0.2522
     33 C33        13.3547  -10.0713   -1.6473 C.ar        1 ZZL      -0.0347
     34 C34        13.5904  -11.2540   -0.9143 C.ar        1 ZZL      -0.0573
     35 H1         12.3471   -6.1288   -7.8039 H           1 ZZL       0.0550
     36 H2         11.3792   -7.5972   -7.6567 H           1 ZZL       0.0550
     37 H3         17.3634  -10.0783  -12.0402 H           1 ZZL       0.0651
     38 H4         15.4813   -8.6840  -12.6334 H           1 ZZL       0.0588
     39 H5         11.6340  -12.9735   -5.5035 H           1 ZZL       0.0679
     40 H6         16.0779  -10.1187    1.0478 H           1 ZZL       0.0621
     41 H7         15.7051   -8.1322   -0.2513 H           1 ZZL       0.0543
     42 H8         14.2589   -6.9269   -1.7194 H           1 ZZL       0.2170
     43 H9         13.0021   -5.2663   -5.6512 H           1 ZZL       0.0835
     44 H10        17.5437  -10.9981   -9.8191 H           1 ZZL       0.0588
     45 H11        12.9630  -11.5000   -9.1816 H           1 ZZL       0.0697
     46 H12        11.9858  -10.8446   -4.4978 H           1 ZZL       0.0662
     47 H13        12.5826  -10.0648   -2.3162 H           1 ZZL       0.0543
     48 H14        12.9972  -12.0782   -1.0757 H           1 ZZL       0.0621
@<TRIPOS>BOND
     1    21     1   1
     2     1    22   1
     3     2     7   1
     4    22     2   2
     5     2    23   1
     6    23     3  ar
     7     3    24   1
     8     3    25  ar
     9     5     4  ar
    10    25     4  ar
    11     6     5  ar
    12    23     6  ar
    13     6    26   1
    14     7    27  ar
    15     7    30  ar
    16     8     9  ar
    17    27     8  ar
    18     8    28   1
    19     9    29  ar
    20    11    10  ar
    21    11    12  ar
    22    13    11   1
    23    14    13  ar
    24    13    34  ar
    25    15    14  ar
    26    16    15  ar
    27    17    16   1
    28    16    33  ar
    29    18    17   1
    30    19    18  ar
    31    18    32  ar
    32    20    19  ar
    33    20    21  ar
    34    21    31  ar
    35    29    30  ar
    36    30    31   1
    37    31    32  ar
    38    33    34  ar
    39     1    35   1
    40     1    36   1
    41     4    37   1
    42     5    38   1
    43     9    39   1
    44    14    40   1
    45    15    41   1
    46    17    42   1
    47    20    43   1
    48    25    44   1
    49    27    45   1
    50    29    46   1
    51    33    47   1
    52    34    48   1
@<TRIPOS>SUBSTRUCTURE
     1  ZZL      1

