@<TRIPOS>MOLECULE
2wtv_ligand_059
    48    52
SMALL
GAST_HUCK
****
This file was generated by PARSER (from files_GN.cpp)

@<TRIPOS>ATOM
      1 C13         5.3150   -9.6486   -6.8152 C.3         1 ZZL       0.0407
      2 C15         3.0082   -9.8619   -6.0752 C.2         1 ZZL       0.0550
      3 C17         1.8516  -11.9948   -5.9833 C.ar        1 ZZL       0.1522
      4 C20        -0.4144  -12.2060   -6.8547 C.ar        1 ZZL      -0.0589
      5 C21        -0.4046  -10.8423   -7.1941 C.ar        1 ZZL      -0.0237
      6 C22         0.7305  -10.0507   -6.9450 C.ar        1 ZZL       0.1522
      7 C24         3.1556   -9.2128   -4.8356 C.ar        1 ZZL       0.0251
      8 C26         2.1831   -7.7294   -3.1244 C.ar        1 ZZL       0.0501
      9 C28         3.3144   -7.9108   -2.3191 C.ar        1 ZZL      -0.0388
     10 O01         5.2670  -12.8010    3.4529 O.co2       1 ZZL      -0.5638
     11 C02         5.5358  -13.8809    2.6890 C.2         1 ZZL       0.0552
     12 O03         5.9080  -14.9926    3.3679 O.co2       1 ZZL      -0.5638
     13 C04         5.7905  -13.7340    1.3020 C.ar        1 ZZL      -0.0018
     14 C05         6.7036  -14.5803    0.6288 C.ar        1 ZZL      -0.0573
     15 C06         7.0585  -14.3321   -0.7089 C.ar        1 ZZL      -0.0347
     16 C07         6.5112  -13.2474   -1.4312 C.ar        1 ZZL       0.0671
     17 N08         6.9845  -13.0769   -2.7108 N.pl3       1 ZZL      -0.2432
     18 C09         6.6693  -12.1391   -3.6353 C.ar        1 ZZL       0.2053
     19 N10         7.2525  -12.2139   -4.8600 N.ar        1 ZZL      -0.2577
     20 C11         6.9069  -11.3821   -5.8730 C.ar        1 ZZL       0.0185
     21 C12         5.9064  -10.3988   -5.6827 C.ar        1 ZZL       0.0154
     22 N14         3.9785  -10.0354   -6.9094 N.2         1 ZZL      -0.3323
     23 C16         1.8745  -10.6182   -6.3333 C.ar        1 ZZL       0.0838
     24 F18         2.8754  -12.5757   -5.4156 F           1 ZZL      -0.1759
     25 C19         0.7128  -12.7787   -6.2486 C.ar        1 ZZL      -0.0237
     26 F23         0.6839   -8.7918   -7.2836 F           1 ZZL      -0.1759
     27 C25         2.1038   -8.3824   -4.3694 C.ar        1 ZZL      -0.0267
     28 CL1         0.9035   -6.7606   -2.5810 Cl          1 ZZL      -0.0667
     29 C29         4.3712   -8.7257   -2.7584 C.ar        1 ZZL      -0.0425
     30 C30         4.3125   -9.3783   -4.0205 C.ar        1 ZZL       0.0182
     31 C31         5.3725  -10.2665   -4.3745 C.ar        1 ZZL       0.0633
     32 N32         5.7677  -11.1525   -3.4300 N.ar        1 ZZL      -0.2522
     33 C33         5.5293  -12.4600   -0.7727 C.ar        1 ZZL      -0.0347
     34 C34         5.1831  -12.6890    0.5680 C.ar        1 ZZL      -0.0573
     35 H1          5.8079   -9.8973   -7.7551 H           1 ZZL       0.0550
     36 H2          5.4085   -8.5712   -6.6586 H           1 ZZL       0.0550
     37 H3         -1.2401  -12.7756   -7.0481 H           1 ZZL       0.0651
     38 H4         -1.2294  -10.4288   -7.6270 H           1 ZZL       0.0588
     39 H5          3.3770   -7.4552   -1.4057 H           1 ZZL       0.0679
     40 H6          7.1583  -15.3567    1.1173 H           1 ZZL       0.0621
     41 H7          7.7524  -14.9361   -1.1536 H           1 ZZL       0.0543
     42 H8          7.6610  -13.7137   -2.9997 H           1 ZZL       0.2170
     43 H9          7.3381  -11.5243   -6.7896 H           1 ZZL       0.0835
     44 H10         0.7023  -13.7708   -6.0043 H           1 ZZL       0.0588
     45 H11         1.2701   -8.2381   -4.9401 H           1 ZZL       0.0697
     46 H12         5.1879   -8.8328   -2.1519 H           1 ZZL       0.0662
     47 H13         5.0433  -11.7033   -1.2495 H           1 ZZL       0.0543
     48 H14         4.4895  -12.0776    1.0091 H           1 ZZL       0.0621
@<TRIPOS>BOND
     1    21     1   1
     2     1    22   1
     3     2     7   1
     4    22     2   2
     5     2    23   1
     6    23     3  ar
     7     3    24   1
     8     3    25  ar
     9     5     4  ar
    10    25     4  ar
    11     6     5  ar
    12    23     6  ar
    13     6    26   1
    14     7    27  ar
    15     7    30  ar
    16     8     9  ar
    17    27     8  ar
    18     8    28   1
    19     9    29  ar
    20    11    10  ar
    21    11    12  ar
    22    13    11   1
    23    14    13  ar
    24    13    34  ar
    25    15    14  ar
    26    16    15  ar
    27    17    16   1
    28    16    33  ar
    29    18    17   1
    30    19    18  ar
    31    18    32  ar
    32    20    19  ar
    33    20    21  ar
    34    21    31  ar
    35    29    30  ar
    36    30    31   1
    37    31    32  ar
    38    33    34  ar
    39     1    35   1
    40     1    36   1
    41     4    37   1
    42     5    38   1
    43     9    39   1
    44    14    40   1
    45    15    41   1
    46    17    42   1
    47    20    43   1
    48    25    44   1
    49    27    45   1
    50    29    46   1
    51    33    47   1
    52    34    48   1
@<TRIPOS>SUBSTRUCTURE
     1  ZZL      1

