@<TRIPOS>MOLECULE
2wtv_ligand_077
    48    52
SMALL
GAST_HUCK
****
This file was generated by PARSER (from files_GN.cpp)

@<TRIPOS>ATOM
      1 C13         5.7259   -8.5375   -1.7915 C.3         1 ZZL       0.0407
      2 C15         4.7904   -9.9756   -3.5111 C.2         1 ZZL       0.0550
      3 C17         4.2268  -10.5049   -5.8417 C.ar        1 ZZL       0.1522
      4 C20         2.0453   -9.9124   -6.7524 C.ar        1 ZZL      -0.0589
      5 C21         1.6765   -9.3672   -5.5164 C.ar        1 ZZL      -0.0237
      6 C22         2.5770   -9.3868   -4.4356 C.ar        1 ZZL       0.1522
      7 C24         5.5511  -11.1260   -3.1929 C.ar        1 ZZL       0.0251
      8 C26         5.5998  -13.5879   -3.0098 C.ar        1 ZZL       0.0501
      9 C28         6.9571  -13.5373   -2.6675 C.ar        1 ZZL      -0.0388
     10 O01        14.1324  -14.5101   -3.8568 O.co2       1 ZZL      -0.5638
     11 C02        13.8046  -13.5528   -4.7521 C.2         1 ZZL       0.0552
     12 O03        14.1164  -13.8066   -6.0488 O.co2       1 ZZL      -0.5638
     13 C04        13.1398  -12.3612   -4.3662 C.ar        1 ZZL      -0.0018
     14 C05        12.7687  -11.3849   -5.3222 C.ar        1 ZZL      -0.0573
     15 C06        12.1159  -10.2026   -4.9339 C.ar        1 ZZL      -0.0347
     16 C07        11.7985   -9.9765   -3.5818 C.ar        1 ZZL       0.0671
     17 N08        11.1474   -8.8495   -3.2072 N.pl3       1 ZZL      -0.2432
     18 C09         9.8334   -8.7994   -2.8925 C.ar        1 ZZL       0.2053
     19 N10         9.3115   -7.6341   -2.4470 N.ar        1 ZZL      -0.2577
     20 C11         8.0064   -7.5199   -2.1082 C.ar        1 ZZL       0.0185
     21 C12         7.1455   -8.6356   -2.2055 C.ar        1 ZZL       0.0154
     22 N14         4.9093   -8.8684   -2.8628 N.2         1 ZZL      -0.3323
     23 C16         3.8753   -9.9543   -4.5774 C.ar        1 ZZL       0.0838
     24 F18         5.4101  -11.0174   -6.0775 F           1 ZZL      -0.1759
     25 C19         3.3156  -10.4873   -6.9134 C.ar        1 ZZL      -0.0237
     26 F23         2.1600   -8.8907   -3.2953 F           1 ZZL      -0.1759
     27 C25         4.9087  -12.3924   -3.2675 C.ar        1 ZZL      -0.0267
     28 CL1         4.7965  -15.0784   -3.1031 Cl          1 ZZL      -0.0667
     29 C29         7.6107  -12.2996   -2.5782 C.ar        1 ZZL      -0.0425
     30 C30         6.9359  -11.0773   -2.8249 C.ar        1 ZZL       0.0182
     31 C31         7.6853   -9.8583   -2.6921 C.ar        1 ZZL       0.0633
     32 N32         9.0113   -9.8748   -3.0047 N.ar        1 ZZL      -0.2522
     33 C33        12.1638  -10.9394   -2.6157 C.ar        1 ZZL      -0.0347
     34 C34        12.8281  -12.1179   -3.0054 C.ar        1 ZZL      -0.0573
     35 H1          5.4669   -7.5268   -1.4734 H           1 ZZL       0.0550
     36 H2          5.5292   -9.2070   -0.9482 H           1 ZZL       0.0550
     37 H3          1.3915   -9.8915   -7.5363 H           1 ZZL       0.0651
     38 H4          0.7483   -8.9512   -5.4052 H           1 ZZL       0.0588
     39 H5          7.4717  -14.4007   -2.4664 H           1 ZZL       0.0679
     40 H6         12.9713  -11.5233   -6.3161 H           1 ZZL       0.0621
     41 H7         11.8540   -9.5117   -5.6466 H           1 ZZL       0.0543
     42 H8         11.6559   -8.0223   -3.1586 H           1 ZZL       0.2170
     43 H9          7.6656   -6.6194   -1.7750 H           1 ZZL       0.0835
     44 H10         3.5865  -10.8794   -7.8178 H           1 ZZL       0.0588
     45 H11         3.9129  -12.4550   -3.5036 H           1 ZZL       0.0697
     46 H12         8.5958  -12.3094   -2.3024 H           1 ZZL       0.0662
     47 H13        11.9509  -10.7860   -1.6271 H           1 ZZL       0.0543
     48 H14        13.0774  -12.7929   -2.2810 H           1 ZZL       0.0621
@<TRIPOS>BOND
     1    21     1   1
     2     1    22   1
     3     2     7   1
     4    22     2   2
     5     2    23   1
     6    23     3  ar
     7     3    24   1
     8     3    25  ar
     9     5     4  ar
    10    25     4  ar
    11     6     5  ar
    12    23     6  ar
    13     6    26   1
    14     7    27  ar
    15     7    30  ar
    16     8     9  ar
    17    27     8  ar
    18     8    28   1
    19     9    29  ar
    20    11    10  ar
    21    11    12  ar
    22    13    11   1
    23    14    13  ar
    24    13    34  ar
    25    15    14  ar
    26    16    15  ar
    27    17    16   1
    28    16    33  ar
    29    18    17   1
    30    19    18  ar
    31    18    32  ar
    32    20    19  ar
    33    20    21  ar
    34    21    31  ar
    35    29    30  ar
    36    30    31   1
    37    31    32  ar
    38    33    34  ar
    39     1    35   1
    40     1    36   1
    41     4    37   1
    42     5    38   1
    43     9    39   1
    44    14    40   1
    45    15    41   1
    46    17    42   1
    47    20    43   1
    48    25    44   1
    49    27    45   1
    50    29    46   1
    51    33    47   1
    52    34    48   1
@<TRIPOS>SUBSTRUCTURE
     1  ZZL      1

