@<TRIPOS>MOLECULE
2wtv_ligand_013
    48    52
SMALL
GAST_HUCK
****
This file was generated by PARSER (from files_GN.cpp)

@<TRIPOS>ATOM
      1 C13        11.5228   -4.2904    3.0725 C.3         1 ZZL       0.0407
      2 C15        10.3824   -4.9781    5.1209 C.2         1 ZZL       0.0550
      3 C17        11.3594   -5.0973    7.3737 C.ar        1 ZZL       0.1522
      4 C20        11.1217   -7.1211    8.7254 C.ar        1 ZZL      -0.0589
      5 C21        10.4086   -7.7279    7.6741 C.ar        1 ZZL      -0.0237
      6 C22        10.1729   -7.0247    6.4714 C.ar        1 ZZL       0.1522
      7 C24         9.1413   -4.3436    4.8573 C.ar        1 ZZL       0.0251
      8 C26         7.1802   -3.1577    5.8097 C.ar        1 ZZL       0.0501
      9 C28         6.6164   -3.0481    4.5304 C.ar        1 ZZL      -0.0388
     10 O01         1.6626   -5.1351   -1.6382 O.co2       1 ZZL      -0.5638
     11 C02         2.3066   -5.8371   -0.6659 C.2         1 ZZL       0.0552
     12 O03         1.5622   -6.4941    0.2652 O.co2       1 ZZL      -0.5638
     13 C04         3.7166   -5.9540   -0.6604 C.ar        1 ZZL      -0.0018
     14 C05         4.3287   -7.2200   -0.8259 C.ar        1 ZZL      -0.0573
     15 C06         5.7372   -7.3307   -0.8788 C.ar        1 ZZL      -0.0347
     16 C07         6.5533   -6.1962   -0.6659 C.ar        1 ZZL       0.0671
     17 N08         7.9086   -6.3362   -0.6725 N.pl3       1 ZZL      -0.2432
     18 C09         8.7515   -5.8257    0.2498 C.ar        1 ZZL       0.2053
     19 N10        10.0813   -5.9538    0.0395 N.ar        1 ZZL      -0.2577
     20 C11        10.9851   -5.4890    0.9331 C.ar        1 ZZL       0.0185
     21 C12        10.5507   -4.8471    2.1182 C.ar        1 ZZL       0.0154
     22 N14        11.3867   -4.9260    4.3095 N.2         1 ZZL      -0.3323
     23 C16        10.6455   -5.6956    6.2986 C.ar        1 ZZL       0.0838
     24 F18        11.7796   -3.8649    7.3072 F           1 ZZL      -0.1759
     25 C19        11.5956   -5.8035    8.5710 C.ar        1 ZZL      -0.0237
     26 F23         9.5333   -7.6444    5.5176 F           1 ZZL      -0.1759
     27 C25         8.4258   -3.7959    5.9624 C.ar        1 ZZL      -0.0267
     28 CL1         6.3578   -2.5405    7.1497 Cl          1 ZZL      -0.0667
     29 C29         7.2991   -3.5681    3.4224 C.ar        1 ZZL      -0.0425
     30 C30         8.5648   -4.2043    3.5527 C.ar        1 ZZL       0.0182
     31 C31         9.1539   -4.7450    2.3608 C.ar        1 ZZL       0.0633
     32 N32         8.3254   -5.2338    1.3949 N.ar        1 ZZL      -0.2522
     33 C33         5.9344   -4.9367   -0.4874 C.ar        1 ZZL      -0.0347
     34 C34         4.5324   -4.8097   -0.5146 C.ar        1 ZZL      -0.0573
     35 H1         11.3561   -3.2097    3.1784 H           1 ZZL       0.0550
     36 H2         12.5522   -4.4317    2.7294 H           1 ZZL       0.0550
     37 H3         11.2841   -7.6270    9.5997 H           1 ZZL       0.0651
     38 H4         10.0535   -8.6803    7.8046 H           1 ZZL       0.0588
     39 H5          5.7041   -2.5987    4.4062 H           1 ZZL       0.0679
     40 H6          3.7670   -8.0554   -0.9691 H           1 ZZL       0.0621
     41 H7          6.1623   -8.2521   -1.0163 H           1 ZZL       0.0543
     42 H8          8.3122   -6.8619   -1.3827 H           1 ZZL       0.2170
     43 H9         11.9744   -5.5984    0.7173 H           1 ZZL       0.0835
     44 H10        12.0995   -5.3626    9.3470 H           1 ZZL       0.0588
     45 H11         8.8145   -3.8482    6.9073 H           1 ZZL       0.0697
     46 H12         6.8423   -3.4704    2.5096 H           1 ZZL       0.0662
     47 H13         6.5130   -4.0918   -0.3701 H           1 ZZL       0.0543
     48 H14         4.1205   -3.8838   -0.3706 H           1 ZZL       0.0621
@<TRIPOS>BOND
     1    21     1   1
     2     1    22   1
     3     2     7   1
     4    22     2   2
     5     2    23   1
     6    23     3  ar
     7     3    24   1
     8     3    25  ar
     9     5     4  ar
    10    25     4  ar
    11     6     5  ar
    12    23     6  ar
    13     6    26   1
    14     7    27  ar
    15     7    30  ar
    16     8     9  ar
    17    27     8  ar
    18     8    28   1
    19     9    29  ar
    20    11    10  ar
    21    11    12  ar
    22    13    11   1
    23    14    13  ar
    24    13    34  ar
    25    15    14  ar
    26    16    15  ar
    27    17    16   1
    28    16    33  ar
    29    18    17   1
    30    19    18  ar
    31    18    32  ar
    32    20    19  ar
    33    20    21  ar
    34    21    31  ar
    35    29    30  ar
    36    30    31   1
    37    31    32  ar
    38    33    34  ar
    39     1    35   1
    40     1    36   1
    41     4    37   1
    42     5    38   1
    43     9    39   1
    44    14    40   1
    45    15    41   1
    46    17    42   1
    47    20    43   1
    48    25    44   1
    49    27    45   1
    50    29    46   1
    51    33    47   1
    52    34    48   1
@<TRIPOS>SUBSTRUCTURE
     1  ZZL      1

