@<TRIPOS>MOLECULE
2wtv_ligand_027
    48    52
SMALL
GAST_HUCK
****
This file was generated by PARSER (from files_GN.cpp)

@<TRIPOS>ATOM
      1 C13        12.8901   -7.1219   -2.0341 C.3         1 ZZL       0.0407
      2 C15        12.2799   -7.3157   -4.3657 C.2         1 ZZL       0.0550
      3 C17        13.6311   -7.2955   -6.3939 C.ar        1 ZZL       0.1522
      4 C20        13.2139   -5.5996   -8.1019 C.ar        1 ZZL      -0.0589
      5 C21        12.1900   -5.0546   -7.3089 C.ar        1 ZZL      -0.0237
      6 C22        11.8781   -5.6236   -6.0591 C.ar        1 ZZL       0.1522
      7 C24        11.2544   -8.2784   -4.2152 C.ar        1 ZZL       0.0251
      8 C26        10.1368  -10.2934   -5.1091 C.ar        1 ZZL       0.0501
      9 C28         9.2663  -10.3080   -4.0098 C.ar        1 ZZL      -0.0388
     10 O01         1.6774   -6.0768   -1.0531 O.co2       1 ZZL      -0.5638
     11 C02         2.6668   -6.9418   -1.3771 C.2         1 ZZL       0.0552
     12 O03         2.4483   -7.8283   -2.3733 O.co2       1 ZZL      -0.5638
     13 C04         3.9879   -6.6166   -1.0447 C.ar        1 ZZL      -0.0018
     14 C05         4.7295   -5.7013   -1.8259 C.ar        1 ZZL      -0.0573
     15 C06         6.0654   -5.4053   -1.4916 C.ar        1 ZZL      -0.0347
     16 C07         6.6604   -5.9942   -0.3534 C.ar        1 ZZL       0.0671
     17 N08         7.8974   -5.6190    0.0543 N.pl3       1 ZZL      -0.2432
     18 C09         9.0658   -5.9903   -0.5123 C.ar        1 ZZL       0.2053
     19 N10        10.2035   -5.4674    0.0066 N.ar        1 ZZL      -0.2577
     20 C11        11.4277   -5.8077   -0.4597 C.ar        1 ZZL       0.0185
     21 C12        11.5542   -6.7451   -1.5101 C.ar        1 ZZL       0.0154
     22 N14        12.9639   -6.8333   -3.3887 N.2         1 ZZL      -0.3323
     23 C16        12.5886   -6.7593   -5.5955 C.ar        1 ZZL       0.0838
     24 F18        14.3105   -8.3472   -6.0057 F           1 ZZL      -0.1759
     25 C19        13.9322   -6.7189   -7.6444 C.ar        1 ZZL      -0.0237
     26 F23        10.9396   -5.0593   -5.3404 F           1 ZZL      -0.1759
     27 C25        11.1087   -9.2844   -5.2116 C.ar        1 ZZL      -0.0267
     28 CL1        10.0454  -11.5088   -6.2841 Cl          1 ZZL      -0.0667
     29 C29         9.3684   -9.3119   -3.0247 C.ar        1 ZZL      -0.0425
     30 C30        10.3519   -8.2882   -3.0990 C.ar        1 ZZL       0.0182
     31 C31        10.3612   -7.3034   -2.0526 C.ar        1 ZZL       0.0633
     32 N32         9.1703   -6.8897   -1.5256 N.ar        1 ZZL      -0.2522
     33 C33         5.9106   -6.8891    0.4368 C.ar        1 ZZL      -0.0347
     34 C34         4.5898   -7.2137    0.0834 C.ar        1 ZZL      -0.0573
     35 H1         13.0650   -8.1874   -1.8666 H           1 ZZL       0.0550
     36 H2         13.6902   -6.5735   -1.5379 H           1 ZZL       0.0550
     37 H3         13.4354   -5.1794   -9.0088 H           1 ZZL       0.0651
     38 H4         11.6686   -4.2410   -7.6465 H           1 ZZL       0.0588
     39 H5          8.5599  -11.0467   -3.9146 H           1 ZZL       0.0679
     40 H6          4.3110   -5.2574   -2.6476 H           1 ZZL       0.0621
     41 H7          6.5891   -4.7375   -2.0622 H           1 ZZL       0.0543
     42 H8          7.9484   -5.0538    0.8425 H           1 ZZL       0.2170
     43 H9         12.2510   -5.3728   -0.0366 H           1 ZZL       0.0835
     44 H10        14.6712   -7.1184   -8.2298 H           1 ZZL       0.0588
     45 H11        11.7412   -9.3165   -6.0161 H           1 ZZL       0.0697
     46 H12         8.7182   -9.3517   -2.2356 H           1 ZZL       0.0662
     47 H13         6.3325   -7.3255    1.2635 H           1 ZZL       0.0543
     48 H14         4.0675   -7.8739    0.6672 H           1 ZZL       0.0621
@<TRIPOS>BOND
     1    21     1   1
     2     1    22   1
     3     2     7   1
     4    22     2   2
     5     2    23   1
     6    23     3  ar
     7     3    24   1
     8     3    25  ar
     9     5     4  ar
    10    25     4  ar
    11     6     5  ar
    12    23     6  ar
    13     6    26   1
    14     7    27  ar
    15     7    30  ar
    16     8     9  ar
    17    27     8  ar
    18     8    28   1
    19     9    29  ar
    20    11    10  ar
    21    11    12  ar
    22    13    11   1
    23    14    13  ar
    24    13    34  ar
    25    15    14  ar
    26    16    15  ar
    27    17    16   1
    28    16    33  ar
    29    18    17   1
    30    19    18  ar
    31    18    32  ar
    32    20    19  ar
    33    20    21  ar
    34    21    31  ar
    35    29    30  ar
    36    30    31   1
    37    31    32  ar
    38    33    34  ar
    39     1    35   1
    40     1    36   1
    41     4    37   1
    42     5    38   1
    43     9    39   1
    44    14    40   1
    45    15    41   1
    46    17    42   1
    47    20    43   1
    48    25    44   1
    49    27    45   1
    50    29    46   1
    51    33    47   1
    52    34    48   1
@<TRIPOS>SUBSTRUCTURE
     1  ZZL      1

