@<TRIPOS>MOLECULE
2wtv_ligand_065
    48    52
SMALL
GAST_HUCK
****
This file was generated by PARSER (from files_GN.cpp)

@<TRIPOS>ATOM
      1 C13         3.5017  -21.4002   -7.4729 C.3         1 ZZL       0.0407
      2 C15         3.0639  -23.6824   -8.1929 C.2         1 ZZL       0.0550
      3 C17         3.6874  -24.2315  -10.5221 C.ar        1 ZZL       0.1522
      4 C20         4.2059  -26.5289  -11.1453 C.ar        1 ZZL      -0.0589
      5 C21         4.0015  -26.9329   -9.8184 C.ar        1 ZZL      -0.0237
      6 C22         3.6405  -25.9892   -8.8369 C.ar        1 ZZL       0.1522
      7 C24         2.1076  -23.9695   -7.1843 C.ar        1 ZZL       0.0251
      8 C26        -0.0155  -25.0925   -6.6112 C.ar        1 ZZL       0.0501
      9 C28         0.1162  -24.6688   -5.2811 C.ar        1 ZZL      -0.0388
     10 O01         8.8770  -19.3593    1.8767 O.co2       1 ZZL      -0.5638
     11 C02         9.1988  -20.0188    0.7344 C.2         1 ZZL       0.0552
     12 O03        10.5047  -20.3131    0.5299 O.co2       1 ZZL      -0.5638
     13 C04         8.1967  -20.6498   -0.0287 C.ar        1 ZZL      -0.0018
     14 C05         7.2826  -19.8650   -0.7609 C.ar        1 ZZL      -0.0573
     15 C06         6.2580  -20.4706   -1.4967 C.ar        1 ZZL      -0.0347
     16 C07         6.1417  -21.8801   -1.5357 C.ar        1 ZZL       0.0671
     17 N08         5.1600  -22.5123   -2.2347 N.pl3       1 ZZL      -0.2432
     18 C09         4.7907  -22.2315   -3.5074 C.ar        1 ZZL       0.2053
     19 N10         5.3997  -21.2795   -4.2522 N.ar        1 ZZL      -0.2577
     20 C11         5.0173  -21.0075   -5.5172 C.ar        1 ZZL       0.0185
     21 C12         3.9453  -21.7153   -6.0996 C.ar        1 ZZL       0.0154
     22 N14         3.6355  -22.5300   -8.2652 N.2         1 ZZL      -0.3323
     23 C16         3.4568  -24.6185   -9.1698 C.ar        1 ZZL       0.0838
     24 F18         3.5345  -22.9968  -10.9304 F           1 ZZL      -0.1759
     25 C19         4.0602  -25.1790  -11.4942 C.ar        1 ZZL      -0.0237
     26 F23         3.5170  -26.4342   -7.6108 F           1 ZZL      -0.1759
     27 C25         0.9697  -24.7363   -7.5487 C.ar        1 ZZL      -0.0267
     28 CL1        -1.3534  -26.0212   -7.0781 Cl          1 ZZL      -0.0667
     29 C29         1.2229  -23.8946   -4.8995 C.ar        1 ZZL      -0.0425
     30 C30         2.2299  -23.5236   -5.8273 C.ar        1 ZZL       0.0182
     31 C31         3.3208  -22.7337   -5.3420 C.ar        1 ZZL       0.0633
     32 N32         3.7728  -22.9305   -4.0717 N.ar        1 ZZL      -0.2522
     33 C33         7.0529  -22.6694   -0.8007 C.ar        1 ZZL      -0.0347
     34 C34         8.0848  -22.0611   -0.0683 C.ar        1 ZZL      -0.0573
     35 H1          4.0916  -20.5922   -7.9199 H           1 ZZL       0.0550
     36 H2          2.4602  -21.0762   -7.4491 H           1 ZZL       0.0550
     37 H3          4.4686  -27.2177  -11.8586 H           1 ZZL       0.0651
     38 H4          4.1209  -27.9216   -9.5706 H           1 ZZL       0.0588
     39 H5         -0.5955  -24.9199   -4.5848 H           1 ZZL       0.0679
     40 H6          7.3633  -18.8470   -0.7624 H           1 ZZL       0.0621
     41 H7          5.5931  -19.8864   -1.9868 H           1 ZZL       0.0543
     42 H8          4.7169  -23.2653   -1.8036 H           1 ZZL       0.2170
     43 H9          5.5159  -20.2684   -6.0322 H           1 ZZL       0.0835
     44 H10         4.2183  -24.8898  -12.4655 H           1 ZZL       0.0588
     45 H11         0.8399  -25.0499   -8.5181 H           1 ZZL       0.0697
     46 H12         1.2665  -23.5877   -3.9232 H           1 ZZL       0.0662
     47 H13         6.9862  -23.6894   -0.8150 H           1 ZZL       0.0543
     48 H14         8.7381  -22.6552    0.4528 H           1 ZZL       0.0621
@<TRIPOS>BOND
     1    21     1   1
     2     1    22   1
     3     2     7   1
     4    22     2   2
     5     2    23   1
     6    23     3  ar
     7     3    24   1
     8     3    25  ar
     9     5     4  ar
    10    25     4  ar
    11     6     5  ar
    12    23     6  ar
    13     6    26   1
    14     7    27  ar
    15     7    30  ar
    16     8     9  ar
    17    27     8  ar
    18     8    28   1
    19     9    29  ar
    20    11    10  ar
    21    11    12  ar
    22    13    11   1
    23    14    13  ar
    24    13    34  ar
    25    15    14  ar
    26    16    15  ar
    27    17    16   1
    28    16    33  ar
    29    18    17   1
    30    19    18  ar
    31    18    32  ar
    32    20    19  ar
    33    20    21  ar
    34    21    31  ar
    35    29    30  ar
    36    30    31   1
    37    31    32  ar
    38    33    34  ar
    39     1    35   1
    40     1    36   1
    41     4    37   1
    42     5    38   1
    43     9    39   1
    44    14    40   1
    45    15    41   1
    46    17    42   1
    47    20    43   1
    48    25    44   1
    49    27    45   1
    50    29    46   1
    51    33    47   1
    52    34    48   1
@<TRIPOS>SUBSTRUCTURE
     1  ZZL      1

