@<TRIPOS>MOLECULE
2wtv_ligand_007
    48    52
SMALL
GAST_HUCK
****
This file was generated by PARSER (from files_GN.cpp)

@<TRIPOS>ATOM
      1 C13         7.2254  -11.7670   -4.4720 C.3         1 ZZL       0.0407
      2 C15         4.9531  -11.6770   -3.5670 C.2         1 ZZL       0.0550
      3 C17         3.1718  -11.9299   -1.8647 C.ar        1 ZZL       0.1522
      4 C20         2.0833  -14.0849   -1.5062 C.ar        1 ZZL      -0.0589
      5 C21         2.9181  -14.6612   -2.4756 C.ar        1 ZZL      -0.0237
      6 C22         3.8636  -13.8690   -3.1566 C.ar        1 ZZL       0.1522
      7 C24         4.6897  -10.3556   -3.9998 C.ar        1 ZZL       0.0251
      8 C26         3.0388   -8.7746   -4.9399 C.ar        1 ZZL       0.0501
      9 C28         3.9790   -7.7386   -4.8714 C.ar        1 ZZL      -0.0388
     10 O01         7.1209   -2.1964    1.2185 O.co2       1 ZZL      -0.5638
     11 C02         7.9511   -2.3321    0.1608 C.2         1 ZZL       0.0552
     12 O03         7.9933   -1.3267   -0.7415 O.co2       1 ZZL      -0.5638
     13 C04         8.2782   -3.6223   -0.2813 C.ar        1 ZZL      -0.0018
     14 C05         9.5118   -4.1957    0.0803 C.ar        1 ZZL      -0.0573
     15 C06         9.8402   -5.4859   -0.3695 C.ar        1 ZZL      -0.0347
     16 C07         8.9666   -6.2309   -1.1979 C.ar        1 ZZL       0.0671
     17 N08         9.4106   -7.4782   -1.5593 N.pl3       1 ZZL      -0.2432
     18 C09         8.8210   -8.4832   -2.2561 C.ar        1 ZZL       0.2053
     19 N10         9.5650   -9.5975   -2.4758 N.ar        1 ZZL      -0.2577
     20 C11         9.0890  -10.6490   -3.1883 C.ar        1 ZZL       0.0185
     21 C12         7.7791  -10.6187   -3.7237 C.ar        1 ZZL       0.0154
     22 N14         6.0929  -12.2362   -3.8100 N.2         1 ZZL      -0.3323
     23 C16         4.0143  -12.4774   -2.8752 C.ar        1 ZZL       0.0838
     24 F18         3.2673  -10.6821   -1.4859 F           1 ZZL      -0.1759
     25 C19         2.2120  -12.7201   -1.1992 C.ar        1 ZZL      -0.0237
     26 F23         4.5619  -14.4713   -4.0822 F           1 ZZL      -0.1759
     27 C25         3.3992  -10.0652   -4.5177 C.ar        1 ZZL      -0.0267
     28 CL1         1.4706   -8.4651   -5.5091 Cl          1 ZZL      -0.0667
     29 C29         5.2701   -7.9965   -4.3863 C.ar        1 ZZL      -0.0425
     30 C30         5.6538   -9.2942   -3.9546 C.ar        1 ZZL       0.0182
     31 C31         6.9984   -9.4562   -3.4796 C.ar        1 ZZL       0.0633
     32 N32         7.5596   -8.4476   -2.7586 N.ar        1 ZZL      -0.2522
     33 C33         7.7371   -5.6250   -1.5701 C.ar        1 ZZL      -0.0347
     34 C34         7.3961   -4.3381   -1.1142 C.ar        1 ZZL      -0.0573
     35 H1          7.9338  -12.5906   -4.5396 H           1 ZZL       0.0550
     36 H2          6.9649  -11.4677   -5.4925 H           1 ZZL       0.0550
     37 H3          1.3797  -14.6577   -1.0299 H           1 ZZL       0.0651
     38 H4          2.8210  -15.6591   -2.6898 H           1 ZZL       0.0588
     39 H5          3.7268   -6.7880   -5.1691 H           1 ZZL       0.0679
     40 H6         10.1760   -3.6810    0.6675 H           1 ZZL       0.0621
     41 H7         10.7347   -5.8857   -0.0710 H           1 ZZL       0.0543
     42 H8         10.3192   -7.6784   -1.2790 H           1 ZZL       0.2170
     43 H9          9.6956  -11.4650   -3.3277 H           1 ZZL       0.0835
     44 H10         1.5999  -12.3106   -0.4874 H           1 ZZL       0.0588
     45 H11         2.6953  -10.8074   -4.5929 H           1 ZZL       0.0697
     46 H12         5.9270   -7.2144   -4.3612 H           1 ZZL       0.0662
     47 H13         7.0706   -6.1085   -2.1700 H           1 ZZL       0.0543
     48 H14         6.4983   -3.9253   -1.3889 H           1 ZZL       0.0621
@<TRIPOS>BOND
     1    21     1   1
     2     1    22   1
     3     2     7   1
     4    22     2   2
     5     2    23   1
     6    23     3  ar
     7     3    24   1
     8     3    25  ar
     9     5     4  ar
    10    25     4  ar
    11     6     5  ar
    12    23     6  ar
    13     6    26   1
    14     7    27  ar
    15     7    30  ar
    16     8     9  ar
    17    27     8  ar
    18     8    28   1
    19     9    29  ar
    20    11    10  ar
    21    11    12  ar
    22    13    11   1
    23    14    13  ar
    24    13    34  ar
    25    15    14  ar
    26    16    15  ar
    27    17    16   1
    28    16    33  ar
    29    18    17   1
    30    19    18  ar
    31    18    32  ar
    32    20    19  ar
    33    20    21  ar
    34    21    31  ar
    35    29    30  ar
    36    30    31   1
    37    31    32  ar
    38    33    34  ar
    39     1    35   1
    40     1    36   1
    41     4    37   1
    42     5    38   1
    43     9    39   1
    44    14    40   1
    45    15    41   1
    46    17    42   1
    47    20    43   1
    48    25    44   1
    49    27    45   1
    50    29    46   1
    51    33    47   1
    52    34    48   1
@<TRIPOS>SUBSTRUCTURE
     1  ZZL      1

