@<TRIPOS>MOLECULE
2wtv_ligand_078
    48    52
SMALL
GAST_HUCK
****
This file was generated by PARSER (from files_GN.cpp)

@<TRIPOS>ATOM
      1 C13        13.6195   -3.4691   -0.8223 C.3         1 ZZL       0.0407
      2 C15        14.2392   -5.4674    0.4040 C.2         1 ZZL       0.0550
      3 C17        14.9393   -7.6260   -0.4697 C.ar        1 ZZL       0.1522
      4 C20        17.0667   -8.5937    0.2294 C.ar        1 ZZL      -0.0589
      5 C21        17.3251   -7.4616    1.0202 C.ar        1 ZZL      -0.0237
      6 C22        16.4038   -6.3968    1.0554 C.ar        1 ZZL       0.1522
      7 C24        13.2124   -5.4315    1.3787 C.ar        1 ZZL       0.0251
      8 C26        12.5390   -5.8384    3.7259 C.ar        1 ZZL       0.0501
      9 C28        11.2465   -5.3808    3.4435 C.ar        1 ZZL      -0.0388
     10 O01         2.7119   -7.1201    0.2246 O.co2       1 ZZL      -0.5638
     11 C02         3.9929   -7.4674    0.5017 C.2         1 ZZL       0.0552
     12 O03         4.1745   -8.4336    1.4319 O.co2       1 ZZL      -0.5638
     13 C04         5.0945   -6.8385   -0.1314 C.ar        1 ZZL      -0.0018
     14 C05         6.3759   -6.8513    0.4640 C.ar        1 ZZL      -0.0573
     15 C06         7.4751   -6.2368   -0.1644 C.ar        1 ZZL      -0.0347
     16 C07         7.3348   -5.5781   -1.4099 C.ar        1 ZZL       0.0671
     17 N08         8.3280   -4.9264   -2.1020 N.pl3       1 ZZL      -0.2432
     18 C09         9.5970   -4.6081   -1.7560 C.ar        1 ZZL       0.2053
     19 N10        10.3552   -3.9253   -2.6494 N.ar        1 ZZL      -0.2577
     20 C11        11.6334   -3.5543   -2.3837 C.ar        1 ZZL       0.0185
     21 C12        12.2246   -3.8656   -1.1393 C.ar        1 ZZL       0.0154
     22 N14        14.3725   -4.5974   -0.5350 N.2         1 ZZL      -0.3323
     23 C16        15.1792   -6.4894    0.3438 C.ar        1 ZZL       0.0838
     24 F18        13.8548   -7.7343   -1.1951 F           1 ZZL      -0.1759
     25 C19        15.8876   -8.6646   -0.5326 C.ar        1 ZZL      -0.0237
     26 F23        16.7050   -5.3387    1.7647 F           1 ZZL      -0.1759
     27 C25        13.5005   -5.8725    2.7015 C.ar        1 ZZL      -0.0267
     28 CL1        12.9275   -6.3312    5.2957 Cl          1 ZZL      -0.0667
     29 C29        10.9243   -4.9603    2.1463 C.ar        1 ZZL      -0.0425
     30 C30        11.8823   -4.9750    1.0975 C.ar        1 ZZL       0.0182
     31 C31        11.4341   -4.5783   -0.2005 C.ar        1 ZZL       0.0633
     32 N32        10.1619   -4.9096   -0.5625 N.ar        1 ZZL      -0.2522
     33 C33         6.0552   -5.5825   -2.0065 C.ar        1 ZZL      -0.0347
     34 C34         4.9519   -6.1922   -1.3801 C.ar        1 ZZL      -0.0573
     35 H1         13.6297   -2.7850    0.0308 H           1 ZZL       0.0550
     36 H2         14.0942   -2.9620   -1.6623 H           1 ZZL       0.0550
     37 H3         17.7429   -9.3592    0.1960 H           1 ZZL       0.0651
     38 H4         18.1874   -7.4130    1.5672 H           1 ZZL       0.0588
     39 H5         10.5348   -5.3501    4.1776 H           1 ZZL       0.0679
     40 H6          6.5287   -7.3052    1.3685 H           1 ZZL       0.0621
     41 H7          8.3754   -6.2994    0.3073 H           1 ZZL       0.0543
     42 H8          8.0710   -4.6139   -2.9856 H           1 ZZL       0.2170
     43 H9         12.1505   -3.0438   -3.1009 H           1 ZZL       0.0835
     44 H10        15.7242   -9.4747   -1.1336 H           1 ZZL       0.0588
     45 H11        14.4302   -6.2130    2.9484 H           1 ZZL       0.0697
     46 H12         9.9692   -4.6290    1.9830 H           1 ZZL       0.0662
     47 H13         5.9169   -5.1473   -2.9215 H           1 ZZL       0.0543
     48 H14         4.0507   -6.1770   -1.8598 H           1 ZZL       0.0621
@<TRIPOS>BOND
     1    21     1   1
     2     1    22   1
     3     2     7   1
     4    22     2   2
     5     2    23   1
     6    23     3  ar
     7     3    24   1
     8     3    25  ar
     9     5     4  ar
    10    25     4  ar
    11     6     5  ar
    12    23     6  ar
    13     6    26   1
    14     7    27  ar
    15     7    30  ar
    16     8     9  ar
    17    27     8  ar
    18     8    28   1
    19     9    29  ar
    20    11    10  ar
    21    11    12  ar
    22    13    11   1
    23    14    13  ar
    24    13    34  ar
    25    15    14  ar
    26    16    15  ar
    27    17    16   1
    28    16    33  ar
    29    18    17   1
    30    19    18  ar
    31    18    32  ar
    32    20    19  ar
    33    20    21  ar
    34    21    31  ar
    35    29    30  ar
    36    30    31   1
    37    31    32  ar
    38    33    34  ar
    39     1    35   1
    40     1    36   1
    41     4    37   1
    42     5    38   1
    43     9    39   1
    44    14    40   1
    45    15    41   1
    46    17    42   1
    47    20    43   1
    48    25    44   1
    49    27    45   1
    50    29    46   1
    51    33    47   1
    52    34    48   1
@<TRIPOS>SUBSTRUCTURE
     1  ZZL      1

