@<TRIPOS>MOLECULE
2wtv_ligand_050
    48    52
SMALL
GAST_HUCK
****
This file was generated by PARSER (from files_GN.cpp)

@<TRIPOS>ATOM
      1 C13         5.4810   -8.8099   -6.1755 C.3         1 ZZL       0.0407
      2 C15         4.4504   -9.2040   -4.0079 C.2         1 ZZL       0.0550
      3 C17         1.9904   -9.2006   -3.8466 C.ar        1 ZZL       0.1522
      4 C20         0.8661  -10.6928   -2.2811 C.ar        1 ZZL      -0.0589
      5 C21         2.1096  -11.1991   -1.8704 C.ar        1 ZZL      -0.0237
      6 C22         3.2991  -10.7082   -2.4430 C.ar        1 ZZL       0.1522
      7 C24         5.5323   -8.7347   -3.2246 C.ar        1 ZZL       0.0251
      8 C26         6.2412   -7.5156   -1.1964 C.ar        1 ZZL       0.0501
      9 C28         7.5841   -7.7275   -1.5305 C.ar        1 ZZL      -0.0388
     10 O01        13.7402  -12.3548   -0.2410 O.co2       1 ZZL      -0.5638
     11 C02        13.3738  -13.2706   -1.1667 C.2         1 ZZL       0.0552
     12 O03        13.9190  -14.5011   -1.0301 O.co2       1 ZZL      -0.5638
     13 C04        12.5251  -12.9343   -2.2542 C.ar        1 ZZL      -0.0018
     14 C05        12.0074  -11.6237   -2.3917 C.ar        1 ZZL      -0.0573
     15 C06        11.1834  -11.2800   -3.4798 C.ar        1 ZZL      -0.0347
     16 C07        10.8367  -12.2439   -4.4552 C.ar        1 ZZL       0.0671
     17 N08        10.0481  -12.0007   -5.5419 N.pl3       1 ZZL      -0.2432
     18 C09         8.9663  -11.1966   -5.6353 C.ar        1 ZZL       0.2053
     19 N10         8.3162  -11.1762   -6.8210 N.ar        1 ZZL      -0.2577
     20 C11         7.2053  -10.4302   -7.0202 C.ar        1 ZZL       0.0185
     21 C12         6.6845   -9.6422   -5.9710 C.ar        1 ZZL       0.0154
     22 N14         4.4864   -9.2106   -5.2965 N.2         1 ZZL      -0.3323
     23 C16         3.2625   -9.6971   -3.4433 C.ar        1 ZZL       0.0838
     24 F18         1.8718   -8.2487   -4.7372 F           1 ZZL      -0.1759
     25 C19         0.8067   -9.6942   -3.2656 C.ar        1 ZZL      -0.0237
     26 F23         4.4259  -11.2386   -2.0396 F           1 ZZL      -0.1759
     27 C25         5.2314   -8.0075   -2.0396 C.ar        1 ZZL      -0.0267
     28 CL1         5.8444   -6.6613    0.2083 Cl          1 ZZL      -0.0667
     29 C29         7.9111   -8.4369   -2.6954 C.ar        1 ZZL      -0.0425
     30 C30         6.9108   -8.9493   -3.5625 C.ar        1 ZZL       0.0182
     31 C31         7.3470   -9.6787   -4.7177 C.ar        1 ZZL       0.0633
     32 N32         8.4604  -10.4592   -4.6141 N.ar        1 ZZL      -0.2522
     33 C33        11.3690  -13.5423   -4.3335 C.ar        1 ZZL      -0.0347
     34 C34        12.1891  -13.8873   -3.2452 C.ar        1 ZZL      -0.0573
     35 H1          5.0929   -8.9225   -7.1858 H           1 ZZL       0.0550
     36 H2          5.7249   -7.7546   -6.0236 H           1 ZZL       0.0550
     37 H3          0.0056  -11.0352   -1.8521 H           1 ZZL       0.0651
     38 H4          2.1447  -11.9239   -1.1492 H           1 ZZL       0.0588
     39 H5          8.3302   -7.3682   -0.9307 H           1 ZZL       0.0679
     40 H6         12.2329  -10.8990   -1.7058 H           1 ZZL       0.0621
     41 H7         10.8671  -10.3132   -3.5668 H           1 ZZL       0.0543
     42 H8         10.2140  -12.5591   -6.3192 H           1 ZZL       0.2170
     43 H9          6.7711  -10.4417   -7.9457 H           1 ZZL       0.0835
     44 H10        -0.1036   -9.3232   -3.5500 H           1 ZZL       0.0588
     45 H11         4.2580   -7.8152   -1.7845 H           1 ZZL       0.0697
     46 H12         8.9051   -8.5627   -2.9080 H           1 ZZL       0.0662
     47 H13        11.1436  -14.2577   -5.0297 H           1 ZZL       0.0543
     48 H14        12.5345  -14.8466   -3.1907 H           1 ZZL       0.0621
@<TRIPOS>BOND
     1    21     1   1
     2     1    22   1
     3     2     7   1
     4    22     2   2
     5     2    23   1
     6    23     3  ar
     7     3    24   1
     8     3    25  ar
     9     5     4  ar
    10    25     4  ar
    11     6     5  ar
    12    23     6  ar
    13     6    26   1
    14     7    27  ar
    15     7    30  ar
    16     8     9  ar
    17    27     8  ar
    18     8    28   1
    19     9    29  ar
    20    11    10  ar
    21    11    12  ar
    22    13    11   1
    23    14    13  ar
    24    13    34  ar
    25    15    14  ar
    26    16    15  ar
    27    17    16   1
    28    16    33  ar
    29    18    17   1
    30    19    18  ar
    31    18    32  ar
    32    20    19  ar
    33    20    21  ar
    34    21    31  ar
    35    29    30  ar
    36    30    31   1
    37    31    32  ar
    38    33    34  ar
    39     1    35   1
    40     1    36   1
    41     4    37   1
    42     5    38   1
    43     9    39   1
    44    14    40   1
    45    15    41   1
    46    17    42   1
    47    20    43   1
    48    25    44   1
    49    27    45   1
    50    29    46   1
    51    33    47   1
    52    34    48   1
@<TRIPOS>SUBSTRUCTURE
     1  ZZL      1

