@<TRIPOS>MOLECULE
2wtv_ligand_071
    48    52
SMALL
GAST_HUCK
****
This file was generated by PARSER (from files_GN.cpp)

@<TRIPOS>ATOM
      1 C13        12.3247  -13.5690   -3.7442 C.3         1 ZZL       0.0407
      2 C15        13.5419  -12.4448   -5.5015 C.2         1 ZZL       0.0550
      3 C17        14.1239  -13.2660   -7.7258 C.ar        1 ZZL       0.1522
      4 C20        16.4594  -13.2580   -8.4422 C.ar        1 ZZL      -0.0589
      5 C21        16.8392  -12.7195   -7.2055 C.ar        1 ZZL      -0.0237
      6 C22        15.8631  -12.4383   -6.2194 C.ar        1 ZZL       0.1522
      7 C24        13.0870  -11.1312   -5.2468 C.ar        1 ZZL       0.0251
      8 C26        12.3805   -8.9489   -6.1798 C.ar        1 ZZL       0.0501
      9 C28        12.1138   -8.4734   -4.8877 C.ar        1 ZZL      -0.0388
     10 O01        15.3469   -4.2607    1.0464 O.co2       1 ZZL      -0.5638
     11 C02        15.5124   -5.2854    1.9257 C.2         1 ZZL       0.0552
     12 O03        15.8980   -4.9467    3.1869 O.co2       1 ZZL      -0.5638
     13 C04        15.2559   -6.6426    1.5641 C.ar        1 ZZL      -0.0018
     14 C05        15.0229   -6.9994    0.2184 C.ar        1 ZZL      -0.0573
     15 C06        14.7602   -8.3386   -0.1321 C.ar        1 ZZL      -0.0347
     16 C07        14.7023   -9.3537    0.8475 C.ar        1 ZZL       0.0671
     17 N08        14.4162  -10.6837    0.6126 N.pl3       1 ZZL      -0.2432
     18 C09        13.9244  -11.3046   -0.4849 C.ar        1 ZZL       0.2053
     19 N10        13.7203  -12.6344   -0.3702 N.ar        1 ZZL      -0.2577
     20 C11        13.2051  -13.3736   -1.3837 C.ar        1 ZZL       0.0185
     21 C12        12.8624  -12.7659   -2.6183 C.ar        1 ZZL       0.0154
     22 N14        13.1868  -13.4684   -4.8118 N.2         1 ZZL      -0.3323
     23 C16        14.4973  -12.7075   -6.4806 C.ar        1 ZZL       0.0838
     24 F18        12.8743  -13.5299   -8.0134 F           1 ZZL      -0.1759
     25 C19        15.1100  -13.5304   -8.7057 C.ar        1 ZZL      -0.0237
     26 F23        16.2584  -11.9436   -5.0729 F           1 ZZL      -0.1759
     27 C25        12.8621  -10.2594   -6.3519 C.ar        1 ZZL      -0.0267
     28 CL1        12.1167   -7.9588   -7.5238 Cl          1 ZZL      -0.0667
     29 C29        12.3444   -9.3000   -3.7787 C.ar        1 ZZL      -0.0425
     30 C30        12.8286  -10.6237   -3.9272 C.ar        1 ZZL       0.0182
     31 C31        13.0860  -11.3686   -2.7370 C.ar        1 ZZL       0.0633
     32 N32        13.6008  -10.7133   -1.6607 N.ar        1 ZZL      -0.2522
     33 C33        14.9598   -8.9899    2.1872 C.ar        1 ZZL      -0.0347
     34 C34        15.2305   -7.6562    2.5409 C.ar        1 ZZL      -0.0573
     35 H1         11.3298  -13.2063   -4.0079 H           1 ZZL       0.0550
     36 H2         12.2358  -14.6175   -3.4621 H           1 ZZL       0.0550
     37 H3         17.1682  -13.4577   -9.1497 H           1 ZZL       0.0651
     38 H4         17.8232  -12.5331   -7.0125 H           1 ZZL       0.0588
     39 H5         11.7512   -7.5308   -4.7490 H           1 ZZL       0.0679
     40 H6         15.0561   -6.3073   -0.5293 H           1 ZZL       0.0621
     41 H7         14.6293   -8.5501   -1.1154 H           1 ZZL       0.0543
     42 H8         14.5436  -11.2687    1.3837 H           1 ZZL       0.2170
     43 H9         13.0777  -14.3812   -1.2321 H           1 ZZL       0.0835
     44 H10        14.8398  -13.9270   -9.6049 H           1 ZZL       0.0588
     45 H11        13.0262  -10.5822   -7.3137 H           1 ZZL       0.0697
     46 H12        12.1438   -8.9213   -2.8555 H           1 ZZL       0.0662
     47 H13        14.9326   -9.6993    2.9245 H           1 ZZL       0.0543
     48 H14        15.3940   -7.4395    3.5172 H           1 ZZL       0.0621
@<TRIPOS>BOND
     1    21     1   1
     2     1    22   1
     3     2     7   1
     4    22     2   2
     5     2    23   1
     6    23     3  ar
     7     3    24   1
     8     3    25  ar
     9     5     4  ar
    10    25     4  ar
    11     6     5  ar
    12    23     6  ar
    13     6    26   1
    14     7    27  ar
    15     7    30  ar
    16     8     9  ar
    17    27     8  ar
    18     8    28   1
    19     9    29  ar
    20    11    10  ar
    21    11    12  ar
    22    13    11   1
    23    14    13  ar
    24    13    34  ar
    25    15    14  ar
    26    16    15  ar
    27    17    16   1
    28    16    33  ar
    29    18    17   1
    30    19    18  ar
    31    18    32  ar
    32    20    19  ar
    33    20    21  ar
    34    21    31  ar
    35    29    30  ar
    36    30    31   1
    37    31    32  ar
    38    33    34  ar
    39     1    35   1
    40     1    36   1
    41     4    37   1
    42     5    38   1
    43     9    39   1
    44    14    40   1
    45    15    41   1
    46    17    42   1
    47    20    43   1
    48    25    44   1
    49    27    45   1
    50    29    46   1
    51    33    47   1
    52    34    48   1
@<TRIPOS>SUBSTRUCTURE
     1  ZZL      1

