@<TRIPOS>MOLECULE
2wtv_ligand_040
    48    52
SMALL
GAST_HUCK
****
This file was generated by PARSER (from files_GN.cpp)

@<TRIPOS>ATOM
      1 C13        12.3173  -14.9020   -4.8255 C.3         1 ZZL       0.0407
      2 C15        10.5779  -13.2935   -4.2991 C.2         1 ZZL       0.0550
      3 C17         8.1646  -12.8517   -4.3787 C.ar        1 ZZL       0.1522
      4 C20         6.8370  -12.9546   -2.3375 C.ar        1 ZZL      -0.0589
      5 C21         7.9884  -13.2886   -1.6031 C.ar        1 ZZL      -0.0237
      6 C22         9.2294  -13.4154   -2.2504 C.ar        1 ZZL       0.1522
      7 C24        11.1480  -12.2069   -4.9953 C.ar        1 ZZL       0.0251
      8 C26        11.6355   -9.7881   -5.0213 C.ar        1 ZZL       0.0501
      9 C28        12.2622   -9.9275   -6.2678 C.ar        1 ZZL      -0.0388
     10 O01        10.7768  -18.8762  -15.1395 O.co2       1 ZZL      -0.5638
     11 C02        11.8399  -18.6215  -14.3370 C.2         1 ZZL       0.0552
     12 O03        12.9442  -19.3866  -14.5378 O.co2       1 ZZL      -0.5638
     13 C04        11.8053  -17.6133  -13.3447 C.ar        1 ZZL      -0.0018
     14 C05        10.6862  -16.7542  -13.2085 C.ar        1 ZZL      -0.0573
     15 C06        10.6611  -15.7525  -12.2289 C.ar        1 ZZL      -0.0347
     16 C07        11.7384  -15.5913  -11.3297 C.ar        1 ZZL       0.0671
     17 N08        11.6690  -14.6002  -10.4024 N.pl3       1 ZZL      -0.2432
     18 C09        11.8863  -14.7172   -9.0715 C.ar        1 ZZL       0.2053
     19 N10        12.1534  -15.8954   -8.4516 N.ar        1 ZZL      -0.2577
     20 C11        12.3094  -15.9765   -7.1084 C.ar        1 ZZL       0.0185
     21 C12        12.1916  -14.8239   -6.3036 C.ar        1 ZZL       0.0154
     22 N14        11.1459  -14.4510   -4.2476 N.2         1 ZZL      -0.3323
     23 C16         9.3391  -13.1903   -3.6497 C.ar        1 ZZL       0.0838
     24 F18         8.1930  -12.6612   -5.6750 F           1 ZZL      -0.1759
     25 C19         6.9232  -12.7434   -3.7252 C.ar        1 ZZL      -0.0237
     26 F23        10.2793  -13.7046   -1.5235 F           1 ZZL      -0.1759
     27 C25        11.0720  -10.9165   -4.3965 C.ar        1 ZZL      -0.0267
     28 CL1        11.5441   -8.2654   -4.2857 Cl          1 ZZL      -0.0667
     29 C29        12.3427  -11.1885   -6.8792 C.ar        1 ZZL      -0.0425
     30 C30        11.8008  -12.3465   -6.2624 C.ar        1 ZZL       0.0182
     31 C31        11.9232  -13.5910   -6.9545 C.ar        1 ZZL       0.0633
     32 N32        11.7778  -13.6015   -8.3093 N.ar        1 ZZL      -0.2522
     33 C33        12.8670  -16.4325  -11.4724 C.ar        1 ZZL      -0.0347
     34 C34        12.8927  -17.4308  -12.4597 C.ar        1 ZZL      -0.0573
     35 H1         13.1749  -14.3132   -4.4908 H           1 ZZL       0.0550
     36 H2         12.4760  -15.9332   -4.4895 H           1 ZZL       0.0550
     37 H3          5.9291  -12.8712   -1.8602 H           1 ZZL       0.0651
     38 H4          7.9142  -13.4426   -0.5944 H           1 ZZL       0.0588
     39 H5         12.6457   -9.1097   -6.7457 H           1 ZZL       0.0679
     40 H6          9.8749  -16.8489  -13.8316 H           1 ZZL       0.0621
     41 H7          9.8447  -15.1330  -12.1613 H           1 ZZL       0.0543
     42 H8         11.3314  -13.7447  -10.7050 H           1 ZZL       0.2170
     43 H9         12.5011  -16.8899   -6.6867 H           1 ZZL       0.0835
     44 H10         6.0799  -12.5096   -4.2538 H           1 ZZL       0.0588
     45 H11        10.6081  -10.7935   -3.4967 H           1 ZZL       0.0697
     46 H12        12.8142  -11.2513   -7.7849 H           1 ZZL       0.0662
     47 H13        13.6818  -16.2959  -10.8748 H           1 ZZL       0.0543
     48 H14        13.7269  -18.0178  -12.5378 H           1 ZZL       0.0621
@<TRIPOS>BOND
     1    21     1   1
     2     1    22   1
     3     2     7   1
     4    22     2   2
     5     2    23   1
     6    23     3  ar
     7     3    24   1
     8     3    25  ar
     9     5     4  ar
    10    25     4  ar
    11     6     5  ar
    12    23     6  ar
    13     6    26   1
    14     7    27  ar
    15     7    30  ar
    16     8     9  ar
    17    27     8  ar
    18     8    28   1
    19     9    29  ar
    20    11    10  ar
    21    11    12  ar
    22    13    11   1
    23    14    13  ar
    24    13    34  ar
    25    15    14  ar
    26    16    15  ar
    27    17    16   1
    28    16    33  ar
    29    18    17   1
    30    19    18  ar
    31    18    32  ar
    32    20    19  ar
    33    20    21  ar
    34    21    31  ar
    35    29    30  ar
    36    30    31   1
    37    31    32  ar
    38    33    34  ar
    39     1    35   1
    40     1    36   1
    41     4    37   1
    42     5    38   1
    43     9    39   1
    44    14    40   1
    45    15    41   1
    46    17    42   1
    47    20    43   1
    48    25    44   1
    49    27    45   1
    50    29    46   1
    51    33    47   1
    52    34    48   1
@<TRIPOS>SUBSTRUCTURE
     1  ZZL      1

