@<TRIPOS>MOLECULE
2wtv_ligand_039
    48    52
SMALL
GAST_HUCK
****
This file was generated by PARSER (from files_GN.cpp)

@<TRIPOS>ATOM
      1 C13         9.3556   -8.2132   -2.1948 C.3         1 ZZL       0.0407
      2 C15         8.6760  -10.3419   -3.2234 C.2         1 ZZL       0.0550
      3 C17         7.7826  -12.6538   -3.3123 C.ar        1 ZZL       0.1522
      4 C20         9.2225  -14.5623   -2.8681 C.ar        1 ZZL      -0.0589
      5 C21        10.2695  -13.6944   -2.5319 C.ar        1 ZZL      -0.0237
      6 C22        10.0927  -12.3010   -2.6396 C.ar        1 ZZL       0.1522
      7 C24         7.8542   -9.7790   -4.2324 C.ar        1 ZZL       0.0251
      8 C26         6.8797  -10.0136   -6.4921 C.ar        1 ZZL       0.0501
      9 C28         6.1105   -8.8589   -6.2973 C.ar        1 ZZL      -0.0388
     10 O01        -0.9389   -8.3020   -4.4321 O.co2       1 ZZL      -0.5638
     11 C02        -0.5183   -7.0898   -4.0005 C.2         1 ZZL       0.0552
     12 O03        -1.2540   -6.0277   -4.3957 O.co2       1 ZZL      -0.5638
     13 C04         0.6601   -6.9366   -3.2239 C.ar        1 ZZL      -0.0018
     14 C05         0.9842   -5.6988   -2.6180 C.ar        1 ZZL      -0.0573
     15 C06         2.1460   -5.5576   -1.8374 C.ar        1 ZZL      -0.0347
     16 C07         3.0406   -6.6326   -1.6731 C.ar        1 ZZL       0.0671
     17 N08         4.1736   -6.4318   -0.9295 N.pl3       1 ZZL      -0.2432
     18 C09         5.4194   -6.8586   -1.2443 C.ar        1 ZZL       0.2053
     19 N10         6.4589   -6.5903   -0.4164 N.ar        1 ZZL      -0.2577
     20 C11         7.7214   -6.9886   -0.7019 C.ar        1 ZZL       0.0185
     21 C12         8.0001   -7.7027   -1.8898 C.ar        1 ZZL       0.0154
     22 N14         9.3062   -9.5879   -2.3886 N.2         1 ZZL      -0.3323
     23 C16         8.8500  -11.7432   -3.0596 C.ar        1 ZZL       0.0838
     24 F18         6.5685  -12.2472   -3.5918 F           1 ZZL      -0.1759
     25 C19         7.9821  -14.0485   -3.2523 C.ar        1 ZZL      -0.0237
     26 F23        11.1377  -11.5583   -2.3755 F           1 ZZL      -0.1759
     27 C25         7.7835  -10.4203   -5.5008 C.ar        1 ZZL      -0.0267
     28 CL1         6.6326  -10.9418   -7.8823 Cl          1 ZZL      -0.0667
     29 C29         6.2037   -8.1644   -5.0857 C.ar        1 ZZL      -0.0425
     30 C30         7.0295   -8.6232   -4.0267 C.ar        1 ZZL       0.0182
     31 C31         6.9236   -7.9365   -2.7792 C.ar        1 ZZL       0.0633
     32 N32         5.6909   -7.5093   -2.4036 N.ar        1 ZZL      -0.2522
     33 C33         2.7145   -7.8753   -2.2635 C.ar        1 ZZL      -0.0347
     34 C34         1.5403   -8.0269   -3.0225 C.ar        1 ZZL      -0.0573
     35 H1         10.0491   -8.0126   -1.3731 H           1 ZZL       0.0550
     36 H2          9.7498   -7.7281   -3.0905 H           1 ZZL       0.0550
     37 H3          9.3678  -15.5753   -2.8269 H           1 ZZL       0.0651
     38 H4         11.1695  -14.0784   -2.2341 H           1 ZZL       0.0588
     39 H5          5.4522   -8.5454   -7.0147 H           1 ZZL       0.0679
     40 H6          0.3714   -4.8883   -2.7303 H           1 ZZL       0.0621
     41 H7          2.3514   -4.6524   -1.4058 H           1 ZZL       0.0543
     42 H8          4.0961   -5.8434   -0.1625 H           1 ZZL       0.2170
     43 H9          8.4617   -6.7690   -0.0330 H           1 ZZL       0.0835
     44 H10         7.2223  -14.6941   -3.4826 H           1 ZZL       0.0588
     45 H11         8.3681  -11.2427   -5.6954 H           1 ZZL       0.0697
     46 H12         5.6095   -7.3313   -4.9766 H           1 ZZL       0.0662
     47 H13         3.3195   -8.6903   -2.1252 H           1 ZZL       0.0543
     48 H14         1.3432   -8.9439   -3.4323 H           1 ZZL       0.0621
@<TRIPOS>BOND
     1    21     1   1
     2     1    22   1
     3     2     7   1
     4    22     2   2
     5     2    23   1
     6    23     3  ar
     7     3    24   1
     8     3    25  ar
     9     5     4  ar
    10    25     4  ar
    11     6     5  ar
    12    23     6  ar
    13     6    26   1
    14     7    27  ar
    15     7    30  ar
    16     8     9  ar
    17    27     8  ar
    18     8    28   1
    19     9    29  ar
    20    11    10  ar
    21    11    12  ar
    22    13    11   1
    23    14    13  ar
    24    13    34  ar
    25    15    14  ar
    26    16    15  ar
    27    17    16   1
    28    16    33  ar
    29    18    17   1
    30    19    18  ar
    31    18    32  ar
    32    20    19  ar
    33    20    21  ar
    34    21    31  ar
    35    29    30  ar
    36    30    31   1
    37    31    32  ar
    38    33    34  ar
    39     1    35   1
    40     1    36   1
    41     4    37   1
    42     5    38   1
    43     9    39   1
    44    14    40   1
    45    15    41   1
    46    17    42   1
    47    20    43   1
    48    25    44   1
    49    27    45   1
    50    29    46   1
    51    33    47   1
    52    34    48   1
@<TRIPOS>SUBSTRUCTURE
     1  ZZL      1

