@<TRIPOS>MOLECULE
2wtv_ligand_079
    48    52
SMALL
GAST_HUCK
****
This file was generated by PARSER (from files_GN.cpp)

@<TRIPOS>ATOM
      1 C13         0.5764  -10.2389   -6.2498 C.3         1 ZZL       0.0407
      2 C15         2.3411  -11.7776   -5.5429 C.2         1 ZZL       0.0550
      3 C17         1.9070  -14.1399   -6.1638 C.ar        1 ZZL       0.1522
      4 C20         2.8670  -15.9611   -4.8537 C.ar        1 ZZL      -0.0589
      5 C21         3.4594  -15.0252   -3.9907 C.ar        1 ZZL      -0.0237
      6 C22         3.2720  -13.6433   -4.2023 C.ar        1 ZZL       0.1522
      7 C24         3.3929  -10.8279   -5.4610 C.ar        1 ZZL       0.0251
      8 C26         5.8162  -10.3843   -5.7215 C.ar        1 ZZL       0.0501
      9 C28         5.6241   -9.0574   -5.3224 C.ar        1 ZZL      -0.0388
     10 O01         5.1713   -3.1359    1.1654 O.co2       1 ZZL      -0.5638
     11 C02         5.2832   -4.3546    0.5945 C.2         1 ZZL       0.0552
     12 O03         6.4276   -5.0600    0.7287 O.co2       1 ZZL      -0.5638
     13 C04         4.2071   -4.9007   -0.1193 C.ar        1 ZZL      -0.0018
     14 C05         4.0146   -4.5759   -1.4797 C.ar        1 ZZL      -0.0573
     15 C06         2.9197   -5.1092   -2.1909 C.ar        1 ZZL      -0.0347
     16 C07         1.9900   -5.9513   -1.5422 C.ar        1 ZZL       0.0671
     17 N08         0.8806   -6.4008   -2.1806 N.pl3       1 ZZL      -0.2432
     18 C09         0.8701   -7.3517   -3.1379 C.ar        1 ZZL       0.2053
     19 N10        -0.3354   -7.7237   -3.6260 N.ar        1 ZZL      -0.2577
     20 C11        -0.4561   -8.6621   -4.5939 C.ar        1 ZZL       0.0185
     21 C12         0.6957   -9.2723   -5.1400 C.ar        1 ZZL       0.0154
     22 N14         1.1465  -11.4363   -5.8774 N.2         1 ZZL      -0.3323
     23 C16         2.5012  -13.1630   -5.3025 C.ar        1 ZZL       0.0838
     24 F18         1.2199  -13.8103   -7.2278 F           1 ZZL      -0.1759
     25 C19         2.0989  -15.5175   -5.9422 C.ar        1 ZZL      -0.0237
     26 F23         3.8181  -12.8292   -3.3382 F           1 ZZL      -0.1759
     27 C25         4.7094  -11.2437   -5.8113 C.ar        1 ZZL      -0.0267
     28 CL1         7.3683  -10.9395   -6.0879 Cl          1 ZZL      -0.0667
     29 C29         4.3402   -8.6073   -4.9931 C.ar        1 ZZL      -0.0425
     30 C30         3.2107   -9.4675   -5.0339 C.ar        1 ZZL       0.0182
     31 C31         1.9596   -8.9129   -4.5991 C.ar        1 ZZL       0.0633
     32 N32         1.9827   -7.9615   -3.6196 N.ar        1 ZZL      -0.2522
     33 C33         2.1742   -6.2556   -0.1783 C.ar        1 ZZL      -0.0347
     34 C34         3.2855   -5.7547    0.5224 C.ar        1 ZZL      -0.0573
     35 H1          1.0766   -9.8460   -7.1369 H           1 ZZL       0.0550
     36 H2         -0.4677  -10.4374   -6.5087 H           1 ZZL       0.0550
     37 H3          3.0105  -16.9599   -4.7005 H           1 ZZL       0.0651
     38 H4          4.0290  -15.3535   -3.2063 H           1 ZZL       0.0588
     39 H5          6.4164   -8.4155   -5.2618 H           1 ZZL       0.0679
     40 H6          4.6684   -3.9518   -1.9656 H           1 ZZL       0.0621
     41 H7          2.7802   -4.8506   -3.1704 H           1 ZZL       0.0543
     42 H8          0.0183   -6.0748   -1.8777 H           1 ZZL       0.2170
     43 H9         -1.3921   -8.8982   -4.9287 H           1 ZZL       0.0835
     44 H10         1.7039  -16.1993   -6.5922 H           1 ZZL       0.0588
     45 H11         4.8791  -12.1971   -6.1332 H           1 ZZL       0.0697
     46 H12         4.2462   -7.6298   -4.7161 H           1 ZZL       0.0662
     47 H13         1.5075   -6.8540    0.3119 H           1 ZZL       0.0543
     48 H14         3.3998   -5.9981    1.5096 H           1 ZZL       0.0621
@<TRIPOS>BOND
     1    21     1   1
     2     1    22   1
     3     2     7   1
     4    22     2   2
     5     2    23   1
     6    23     3  ar
     7     3    24   1
     8     3    25  ar
     9     5     4  ar
    10    25     4  ar
    11     6     5  ar
    12    23     6  ar
    13     6    26   1
    14     7    27  ar
    15     7    30  ar
    16     8     9  ar
    17    27     8  ar
    18     8    28   1
    19     9    29  ar
    20    11    10  ar
    21    11    12  ar
    22    13    11   1
    23    14    13  ar
    24    13    34  ar
    25    15    14  ar
    26    16    15  ar
    27    17    16   1
    28    16    33  ar
    29    18    17   1
    30    19    18  ar
    31    18    32  ar
    32    20    19  ar
    33    20    21  ar
    34    21    31  ar
    35    29    30  ar
    36    30    31   1
    37    31    32  ar
    38    33    34  ar
    39     1    35   1
    40     1    36   1
    41     4    37   1
    42     5    38   1
    43     9    39   1
    44    14    40   1
    45    15    41   1
    46    17    42   1
    47    20    43   1
    48    25    44   1
    49    27    45   1
    50    29    46   1
    51    33    47   1
    52    34    48   1
@<TRIPOS>SUBSTRUCTURE
     1  ZZL      1

