@<TRIPOS>MOLECULE
2wtv_ligand_062
    48    52
SMALL
GAST_HUCK
****
This file was generated by PARSER (from files_GN.cpp)

@<TRIPOS>ATOM
      1 C13         7.3913  -11.2475   -6.0202 C.3         1 ZZL       0.0407
      2 C15         8.6967  -11.9285   -4.0915 C.2         1 ZZL       0.0550
      3 C17        10.6920  -13.3191   -3.8223 C.ar        1 ZZL       0.1522
      4 C20        12.7268  -12.3388   -2.9004 C.ar        1 ZZL      -0.0589
      5 C21        12.0938  -11.0864   -2.8334 C.ar        1 ZZL      -0.0237
      6 C22        10.7483  -10.9495   -3.2261 C.ar        1 ZZL       0.1522
      7 C24         7.6272  -12.1389   -3.1921 C.ar        1 ZZL       0.0251
      8 C26         6.6800  -13.4837   -1.3457 C.ar        1 ZZL       0.0501
      9 C28         5.5331  -12.6796   -1.3363 C.ar        1 ZZL      -0.0388
     10 O01         2.6495   -7.8346    2.3248 O.co2       1 ZZL      -0.5638
     11 C02         2.7091   -6.7272    1.5576 C.2         1 ZZL       0.0552
     12 O03         2.6342   -5.5309    2.1702 O.co2       1 ZZL      -0.5638
     13 C04         3.2342   -6.7757    0.2621 C.ar        1 ZZL      -0.0018
     14 C05         2.4169   -6.4019   -0.8242 C.ar        1 ZZL      -0.0573
     15 C06         2.9230   -6.4330   -2.1348 C.ar        1 ZZL      -0.0347
     16 C07         4.2481   -6.8479   -2.3808 C.ar        1 ZZL       0.0671
     17 N08         4.6662   -6.9275   -3.6762 N.pl3       1 ZZL      -0.2432
     18 C09         5.3394   -7.9686   -4.2196 C.ar        1 ZZL       0.2053
     19 N10         5.7053   -7.9172   -5.5226 N.ar        1 ZZL      -0.2577
     20 C11         6.3610   -8.9439   -6.1166 C.ar        1 ZZL       0.0185
     21 C12         6.6718  -10.1184   -5.3899 C.ar        1 ZZL       0.0154
     22 N14         8.5495  -11.5277   -5.3068 N.2         1 ZZL      -0.3323
     23 C16        10.0266  -12.0706   -3.7109 C.ar        1 ZZL       0.0838
     24 F18        10.0894  -14.3742   -4.3099 F           1 ZZL      -0.1759
     25 C19        12.0256  -13.4543   -3.3902 C.ar        1 ZZL      -0.0237
     26 F23        10.1996   -9.7650   -3.1397 F           1 ZZL      -0.1759
     27 C25         7.7141  -13.2054   -2.2553 C.ar        1 ZZL      -0.0267
     28 CL1         6.7976  -14.7977   -0.2845 Cl          1 ZZL      -0.0667
     29 C29         5.4276  -11.6082   -2.2342 C.ar        1 ZZL      -0.0425
     30 C30         6.4525  -11.3157   -3.1749 C.ar        1 ZZL       0.0182
     31 C31         6.2579  -10.1833   -4.0338 C.ar        1 ZZL       0.0633
     32 N32         5.6191   -9.0993   -3.5209 N.ar        1 ZZL      -0.2522
     33 C33         5.0829   -7.1676   -1.2819 C.ar        1 ZZL      -0.0347
     34 C34         4.5758   -7.1458    0.0311 C.ar        1 ZZL      -0.0573
     35 H1          7.6829  -11.0210   -7.0486 H           1 ZZL       0.0550
     36 H2          6.7476  -12.1279   -6.0410 H           1 ZZL       0.0550
     37 H3         13.6990  -12.4370   -2.5991 H           1 ZZL       0.0651
     38 H4         12.6156  -10.2743   -2.4938 H           1 ZZL       0.0588
     39 H5          4.7680  -12.8735   -0.6856 H           1 ZZL       0.0679
     40 H6          1.4435   -6.1268   -0.6746 H           1 ZZL       0.0621
     41 H7          2.3044   -6.1835   -2.9103 H           1 ZZL       0.0543
     42 H8          4.3497   -6.2439   -4.2860 H           1 ZZL       0.2170
     43 H9          6.6156   -8.8522   -7.1010 H           1 ZZL       0.0835
     44 H10        12.4909  -14.3635   -3.4322 H           1 ZZL       0.0588
     45 H11         8.5316  -13.8162   -2.2383 H           1 ZZL       0.0697
     46 H12         4.5702  -11.0487   -2.1991 H           1 ZZL       0.0662
     47 H13         6.0643   -7.4174   -1.4322 H           1 ZZL       0.0543
     48 H14         5.1935   -7.3856    0.8113 H           1 ZZL       0.0621
@<TRIPOS>BOND
     1    21     1   1
     2     1    22   1
     3     2     7   1
     4    22     2   2
     5     2    23   1
     6    23     3  ar
     7     3    24   1
     8     3    25  ar
     9     5     4  ar
    10    25     4  ar
    11     6     5  ar
    12    23     6  ar
    13     6    26   1
    14     7    27  ar
    15     7    30  ar
    16     8     9  ar
    17    27     8  ar
    18     8    28   1
    19     9    29  ar
    20    11    10  ar
    21    11    12  ar
    22    13    11   1
    23    14    13  ar
    24    13    34  ar
    25    15    14  ar
    26    16    15  ar
    27    17    16   1
    28    16    33  ar
    29    18    17   1
    30    19    18  ar
    31    18    32  ar
    32    20    19  ar
    33    20    21  ar
    34    21    31  ar
    35    29    30  ar
    36    30    31   1
    37    31    32  ar
    38    33    34  ar
    39     1    35   1
    40     1    36   1
    41     4    37   1
    42     5    38   1
    43     9    39   1
    44    14    40   1
    45    15    41   1
    46    17    42   1
    47    20    43   1
    48    25    44   1
    49    27    45   1
    50    29    46   1
    51    33    47   1
    52    34    48   1
@<TRIPOS>SUBSTRUCTURE
     1  ZZL      1

