@<TRIPOS>MOLECULE
2wtv_ligand_067
    48    52
SMALL
GAST_HUCK
****
This file was generated by PARSER (from files_GN.cpp)

@<TRIPOS>ATOM
      1 C13         3.3598  -21.6018   -1.9586 C.3         1 ZZL       0.0407
      2 C15         1.5782  -22.5809   -3.2897 C.2         1 ZZL       0.0550
      3 C17        -0.8348  -22.4753   -3.6879 C.ar        1 ZZL       0.1522
      4 C20        -2.2898  -24.2728   -2.9161 C.ar        1 ZZL      -0.0589
      5 C21        -1.1763  -24.9459   -2.3860 C.ar        1 ZZL      -0.0237
      6 C22         0.1102  -24.3809   -2.4914 C.ar        1 ZZL       0.1522
      7 C24         2.1907  -22.4354   -4.5543 C.ar        1 ZZL       0.0251
      8 C26         2.5374  -23.3811   -6.8105 C.ar        1 ZZL       0.0501
      9 C28         3.3333  -22.2798   -7.1538 C.ar        1 ZZL      -0.0388
     10 O01         4.8112  -11.7625   -0.3932 O.co2       1 ZZL      -0.5638
     11 C02         4.2459  -11.7792   -1.6172 C.2         1 ZZL       0.0552
     12 O03         3.9376  -10.5820   -2.1668 O.co2       1 ZZL      -0.5638
     13 C04         4.0617  -12.9924   -2.3357 C.ar        1 ZZL      -0.0018
     14 C05         2.7656  -13.5089   -2.5768 C.ar        1 ZZL      -0.0573
     15 C06         2.5854  -14.7150   -3.2859 C.ar        1 ZZL      -0.0347
     16 C07         3.7061  -15.4172   -3.7756 C.ar        1 ZZL       0.0671
     17 N08         3.5465  -16.5808   -4.4737 N.pl3       1 ZZL      -0.2432
     18 C09         3.4957  -17.7973   -3.8878 C.ar        1 ZZL       0.2053
     19 N10         3.6534  -17.9076   -2.5503 N.ar        1 ZZL      -0.2577
     20 C11         3.6217  -19.0927   -1.9160 C.ar        1 ZZL       0.0185
     21 C12         3.4114  -20.2889   -2.6428 C.ar        1 ZZL       0.0154
     22 N14         2.1293  -22.2032   -2.1902 N.2         1 ZZL      -0.3323
     23 C16         0.2998  -23.1354   -3.1476 C.ar        1 ZZL       0.0838
     24 F18        -0.7351  -21.3201   -4.2950 F           1 ZZL      -0.1759
     25 C19        -2.1200  -23.0397   -3.5673 C.ar        1 ZZL      -0.0237
     26 F23         1.1174  -25.0557   -2.0016 F           1 ZZL      -0.1759
     27 C25         1.9807  -23.4543   -5.5222 C.ar        1 ZZL      -0.0267
     28 CL1         2.2622  -24.6083   -7.9443 Cl          1 ZZL      -0.0667
     29 C29         3.5582  -21.2607   -6.2190 C.ar        1 ZZL      -0.0425
     30 C30         2.9981  -21.3031   -4.9145 C.ar        1 ZZL       0.0182
     31 C31         3.2381  -20.1844   -4.0485 C.ar        1 ZZL       0.0633
     32 N32         3.2929  -18.9360   -4.6068 N.ar        1 ZZL      -0.2522
     33 C33         4.9983  -14.9269   -3.5256 C.ar        1 ZZL      -0.0347
     34 C34         5.1757  -13.7185   -2.8167 C.ar        1 ZZL      -0.0573
     35 H1          3.4808  -21.5035   -0.8784 H           1 ZZL       0.0550
     36 H2          4.1640  -22.2479   -2.3218 H           1 ZZL       0.0550
     37 H3         -3.2229  -24.6836   -2.8325 H           1 ZZL       0.0651
     38 H4         -1.3057  -25.8480   -1.9193 H           1 ZZL       0.0588
     39 H5          3.7563  -22.2198   -8.0834 H           1 ZZL       0.0679
     40 H6          1.9376  -13.0124   -2.2418 H           1 ZZL       0.0621
     41 H7          1.6403  -15.0688   -3.4563 H           1 ZZL       0.0543
     42 H8          3.4365  -16.5182   -5.4278 H           1 ZZL       0.2170
     43 H9          3.7505  -19.1073   -0.9022 H           1 ZZL       0.0835
     44 H10        -2.9370  -22.5548   -3.9514 H           1 ZZL       0.0588
     45 H11         1.4167  -24.2793   -5.2929 H           1 ZZL       0.0697
     46 H12         4.1514  -20.4787   -6.5099 H           1 ZZL       0.0662
     47 H13         5.8174  -15.4418   -3.8579 H           1 ZZL       0.0543
     48 H14         6.1268  -13.3806   -2.6605 H           1 ZZL       0.0621
@<TRIPOS>BOND
     1    21     1   1
     2     1    22   1
     3     2     7   1
     4    22     2   2
     5     2    23   1
     6    23     3  ar
     7     3    24   1
     8     3    25  ar
     9     5     4  ar
    10    25     4  ar
    11     6     5  ar
    12    23     6  ar
    13     6    26   1
    14     7    27  ar
    15     7    30  ar
    16     8     9  ar
    17    27     8  ar
    18     8    28   1
    19     9    29  ar
    20    11    10  ar
    21    11    12  ar
    22    13    11   1
    23    14    13  ar
    24    13    34  ar
    25    15    14  ar
    26    16    15  ar
    27    17    16   1
    28    16    33  ar
    29    18    17   1
    30    19    18  ar
    31    18    32  ar
    32    20    19  ar
    33    20    21  ar
    34    21    31  ar
    35    29    30  ar
    36    30    31   1
    37    31    32  ar
    38    33    34  ar
    39     1    35   1
    40     1    36   1
    41     4    37   1
    42     5    38   1
    43     9    39   1
    44    14    40   1
    45    15    41   1
    46    17    42   1
    47    20    43   1
    48    25    44   1
    49    27    45   1
    50    29    46   1
    51    33    47   1
    52    34    48   1
@<TRIPOS>SUBSTRUCTURE
     1  ZZL      1

