@<TRIPOS>MOLECULE
2x00_ligand_007
    84    88
SMALL
GAST_HUCK
****
This file was generated by PARSER (from files_GN.cpp)

@<TRIPOS>ATOM
      1 O6         -3.1869   40.1158   -2.1700 O.2         1 GYN      -0.3700
      2 C5         -2.6598   39.7978   -0.9654 C.2         1 GYN       0.2385
      3 O1         -1.9930   38.6510   -0.7493 O.3         1 GYN      -0.2655
      4 C2         -1.4410   38.5517    0.5642 C.3         1 GYN       0.1059
      5 C3         -1.8945   39.8743    1.2536 C.3         1 GYN       0.0041
      6 C4         -2.6828   40.6908    0.1933 C.3         1 GYN       0.0613
      7 C7         -4.1293   41.0624    0.6039 C.3         1 GYN      -0.0438
      8 C8         -1.8198   37.3042    1.2830 C.2         1 GYN      -0.0559
      9 C13        -1.0448   36.7373    2.2578 C.2         1 GYN      -0.0876
     10 C14         0.0171   37.5469    2.8862 C.3         1 GYN      -0.0498
     11 C12        -1.3299   35.3861    2.8454 C.3         1 GYN      -0.0250
     12 C27        -2.4501   34.5313    2.0798 C.3         1 GYN       0.0148
     13 C10        -3.6058   35.5556    1.7937 C.3         1 GYN      -0.0494
     14 C9         -3.1393   36.7509    0.9336 C.3         1 GYN      -0.0395
     15 C15        -0.0645   34.6415    3.0538 C.2         1 GYN      -0.1023
     16 C16         0.5881   34.3500    4.2099 C.2         1 GYN      -0.0548
     17 C19        -0.0021   34.6070    5.5275 C.3         1 GYN      -0.0377
     18 C17         1.9910   33.8755    4.1713 C.3         1 GYN       0.0804
     19 O20         2.7765   34.8516    4.8667 O.3         1 GYN      -0.3807
     20 C18         2.2342   32.4376    4.7473 C.3         1 GYN      -0.0158
     21 C21         1.8625   31.2505    3.8102 C.3         1 GYN      -0.0223
     22 C43         0.3507   30.9168    3.7108 C.3         1 GYN       0.0623
     23 C47        -0.0066   29.9770    2.5377 C.3         1 GYN      -0.0197
     24 C48        -0.9278   28.9025    3.1597 C.3         1 GYN      -0.0066
     25 C49        -0.2431   27.5100    3.1922 C.3         1 GYN      -0.0582
     26 O43        -0.0997   30.2594    4.9054 O.3         1 GYN      -0.3622
     27 C37        -1.2481   29.4522    4.5847 C.3         1 GYN       0.0865
     28 C36        -2.5692   30.1073    4.7047 C.2         1 GYN      -0.0553
     29 C38        -3.7625   29.2799    4.5057 C.3         1 GYN      -0.0379
     30 C35        -2.6871   31.4037    5.0730 C.2         1 GYN      -0.1039
     31 C34        -3.8806   32.2433    5.0229 C.3         1 GYN      -0.0315
     32 C33        -3.6493   33.5487    4.1986 C.3         1 GYN       0.0100
     33 C32        -3.0821   33.4065    2.8472 C.2         1 GYN       0.0383
     34 N31        -3.5038   32.3503    2.2316 N.2         1 GYN      -0.2722
     35 C30        -3.4139   31.9408    0.9040 C.3         1 GYN       0.0432
     36 C46        -2.8853   33.0423   -0.0426 C.3         1 GYN      -0.0375
     37 C28        -1.8777   33.9354    0.7210 C.3         1 GYN      -0.0530
     38 H1         -0.3670   38.5759    0.4028 H           1 GYN       0.0753
     39 H2         -1.0212   40.4393    1.5858 H           1 GYN       0.0338
     40 H3         -2.5153   39.6781    2.1400 H           1 GYN       0.0338
     41 H4         -2.1315   41.6018   -0.0600 H           1 GYN       0.0553
     42 H5         -4.6192   41.6117   -0.2025 H           1 GYN       0.0258
     43 H6         -4.1175   41.6985    1.4898 H           1 GYN       0.0258
     44 H7         -4.7123   40.1672    0.8227 H           1 GYN       0.0258
     45 H8          0.3709   37.1414    3.8283 H           1 GYN       0.0329
     46 H9         -0.3437   38.5504    3.1187 H           1 GYN       0.0329
     47 H10         0.8755   37.6205    2.2144 H           1 GYN       0.0329
     48 H11        -1.7430   35.6481    3.8155 H           1 GYN       0.0417
     49 H12        -3.9751   35.9673    2.7415 H           1 GYN       0.0226
     50 H13        -4.4612   35.0803    1.3056 H           1 GYN       0.0226
     51 H14        -3.1271   36.4393   -0.1131 H           1 GYN       0.0362
     52 H15        -3.8908   37.5327    1.0297 H           1 GYN       0.0362
     53 H16         0.4359   34.4508    2.2170 H           1 GYN       0.0252
     54 H17        -0.2607   35.6597    5.6393 H           1 GYN       0.0377
     55 H18         0.6740   34.3629    6.3498 H           1 GYN       0.0377
     56 H19        -0.8936   34.0045    5.6626 H           1 GYN       0.0377
     57 H20         2.3927   33.8799    3.1543 H           1 GYN       0.0742
     58 H21         3.7134   34.6314    4.7274 H           1 GYN       0.2129
     59 H22         1.7344   32.3058    5.7117 H           1 GYN       0.0312
     60 H23         3.3117   32.3506    4.9407 H           1 GYN       0.0312
     61 H24         2.3755   30.3530    4.1661 H           1 GYN       0.0293
     62 H25         2.2489   31.4660    2.8164 H           1 GYN       0.0293
     63 H26        -0.2161   31.8420    3.5866 H           1 GYN       0.0598
     64 H27         0.8830   29.5351    2.0789 H           1 GYN       0.0295
     65 H28        -0.5309   30.5375    1.7574 H           1 GYN       0.0295
     66 H29        -1.8322   28.8066    2.5486 H           1 GYN       0.0345
     67 H30        -0.9000   26.7762    3.6624 H           1 GYN       0.0235
     68 H31         0.6932   27.5548    3.7542 H           1 GYN       0.0235
     69 H32        -0.0267   27.1727    2.1764 H           1 GYN       0.0235
     70 H33        -1.2489   28.6388    5.3161 H           1 GYN       0.0747
     71 H34        -4.4187   29.3511    5.3765 H           1 GYN       0.0376
     72 H35        -3.5173   28.2246    4.3775 H           1 GYN       0.0376
     73 H36        -4.3043   29.6064    3.6167 H           1 GYN       0.0376
     74 H37        -1.8731   31.8687    5.3907 H           1 GYN       0.0245
     75 H38        -4.1512   32.5144    6.0473 H           1 GYN       0.0369
     76 H39        -4.7415   31.7241    4.5985 H           1 GYN       0.0369
     77 H40        -3.0333   34.1981    4.8096 H           1 GYN       0.0520
     78 H41        -4.6177   34.0454    4.1026 H           1 GYN       0.0520
     79 H42        -4.4068   31.6275    0.5733 H           1 GYN       0.0507
     80 H43        -2.7610   31.0672    0.8630 H           1 GYN       0.0507
     81 H44        -3.7154   33.6463   -0.4111 H           1 GYN       0.0277
     82 H45        -2.3992   32.5859   -0.9090 H           1 GYN       0.0277
     83 H46        -1.0151   33.2977    0.9272 H           1 GYN       0.0210
     84 H47        -1.5327   34.7202    0.0485 H           1 GYN       0.0210
@<TRIPOS>BOND
     1     1     2   2
     2     2     3   1
     3     2     6   1
     4     3     4   1
     5     4     5   1
     6     4     8   1
     7     5     6   1
     8     6     7   1
     9     8     9   2
    10     8    14   1
    11     9    10   1
    12     9    11   1
    13    11    12   1
    14    11    15   1
    15    12    13   1
    16    12    33   1
    17    12    37   1
    18    13    14   1
    19    15    16   2
    20    16    17   1
    21    16    18   1
    22    18    19   1
    23    18    20   1
    24    20    21   1
    25    21    22   1
    26    22    23   1
    27    22    26   1
    28    23    24   1
    29    24    25   1
    30    24    27   1
    31    26    27   1
    32    27    28   1
    33    28    29   1
    34    28    30   2
    35    30    31   1
    36    31    32   1
    37    32    33   1
    38    33    34   2
    39    34    35   1
    40    35    36   1
    41    36    37   1
    42     4    38   1
    43     5    39   1
    44     5    40   1
    45     6    41   1
    46     7    42   1
    47     7    43   1
    48     7    44   1
    49    10    45   1
    50    10    46   1
    51    10    47   1
    52    11    48   1
    53    13    49   1
    54    13    50   1
    55    14    51   1
    56    14    52   1
    57    15    53   1
    58    17    54   1
    59    17    55   1
    60    17    56   1
    61    18    57   1
    62    19    58   1
    63    20    59   1
    64    20    60   1
    65    21    61   1
    66    21    62   1
    67    22    63   1
    68    23    64   1
    69    23    65   1
    70    24    66   1
    71    25    67   1
    72    25    68   1
    73    25    69   1
    74    27    70   1
    75    29    71   1
    76    29    72   1
    77    29    73   1
    78    30    74   1
    79    31    75   1
    80    31    76   1
    81    32    77   1
    82    32    78   1
    83    35    79   1
    84    35    80   1
    85    36    81   1
    86    36    82   1
    87    37    83   1
    88    37    84   1
@<TRIPOS>SUBSTRUCTURE
     1  GYN      2

