@<TRIPOS>MOLECULE
2x00_ligand_090
    84    88
SMALL
GAST_HUCK
****
This file was generated by PARSER (from files_GN.cpp)

@<TRIPOS>ATOM
      1 O6          9.5155   26.6309  -21.3740 O.2         1 GYN      -0.3700
      2 C5          9.8441   25.7603  -20.3980 C.2         1 GYN       0.2385
      3 O1          8.9249   24.9518  -19.8346 O.3         1 GYN      -0.2655
      4 C2          9.4929   24.0328  -18.9098 C.3         1 GYN       0.1059
      5 C3         10.9912   24.4600  -18.8127 C.3         1 GYN       0.0041
      6 C4         11.2131   25.4699  -19.9650 C.3         1 GYN       0.0613
      7 C7         12.0062   26.7395  -19.5594 C.3         1 GYN      -0.0438
      8 C8          8.7693   23.9303  -17.6130 C.2         1 GYN      -0.0559
      9 C13         8.6185   24.9498  -16.7166 C.2         1 GYN      -0.0876
     10 C14         8.7053   26.3383  -17.1936 C.3         1 GYN      -0.0498
     11 C12         8.1875   24.7206  -15.2909 C.3         1 GYN      -0.0250
     12 C27         8.1911   23.1932  -14.8178 C.3         1 GYN       0.0148
     13 C10         7.4888   22.4176  -15.9904 C.3         1 GYN      -0.0494
     14 C9          8.2480   22.5842  -17.3228 C.3         1 GYN      -0.0395
     15 C15         8.9475   25.5896  -14.3679 C.2         1 GYN      -0.1023
     16 C16         8.5392   26.7083  -13.6985 C.2         1 GYN      -0.0548
     17 C19         7.1561   27.1893  -13.7875 C.3         1 GYN      -0.0377
     18 C17         9.5554   27.5824  -13.0614 C.3         1 GYN       0.0804
     19 O20         9.6823   28.7533  -13.8745 O.3         1 GYN      -0.3807
     20 C18         9.3539   28.0264  -11.5787 C.3         1 GYN      -0.0158
     21 C21         9.6089   26.9540  -10.4810 C.3         1 GYN      -0.0223
     22 C43         8.5428   25.8445  -10.3598 C.3         1 GYN       0.0623
     23 C47         8.7857   24.8464   -9.1996 C.3         1 GYN      -0.0197
     24 C48         7.5353   24.9671   -8.3054 C.3         1 GYN      -0.0066
     25 C49         7.7989   25.8277   -7.0436 C.3         1 GYN      -0.0582
     26 O43         7.2572   26.4448  -10.1198 O.3         1 GYN      -0.3622
     27 C37         6.4772   25.5858   -9.2686 C.3         1 GYN       0.0865
     28 C36         5.6528   24.5705   -9.9572 C.2         1 GYN      -0.0553
     29 C38         4.7115   23.7900   -9.1627 C.3         1 GYN      -0.0379
     30 C35         5.7920   24.3274  -11.2787 C.2         1 GYN      -0.1039
     31 C34         5.3032   23.1865  -12.0375 C.3         1 GYN      -0.0315
     32 C33         5.9387   23.0996  -13.4646 C.3         1 GYN       0.0100
     33 C32         7.4039   22.9461  -13.5630 C.2         1 GYN       0.0383
     34 N31         7.9489   22.4036  -12.5218 N.2         1 GYN      -0.2722
     35 C30         9.2559   22.0231  -12.2604 C.3         1 GYN       0.0432
     36 C46        10.2590   22.6707  -13.2321 C.3         1 GYN      -0.0375
     37 C28         9.6708   22.6163  -14.6652 C.3         1 GYN      -0.0530
     38 H1          9.4644   23.0817  -19.4523 H           1 GYN       0.0753
     39 H2         11.6546   23.5976  -18.9239 H           1 GYN       0.0338
     40 H3         11.2017   24.9153  -17.8439 H           1 GYN       0.0338
     41 H4         11.7299   24.9879  -20.8016 H           1 GYN       0.0553
     42 H5         12.0827   27.4182  -20.4059 H           1 GYN       0.0258
     43 H6         13.0118   26.4666  -19.2419 H           1 GYN       0.0258
     44 H7         11.5138   27.2652  -18.7386 H           1 GYN       0.0258
     45 H8          8.4784   27.0846  -16.4415 H           1 GYN       0.0329
     46 H9          7.9972   26.5082  -18.0018 H           1 GYN       0.0329
     47 H10         9.7146   26.5631  -17.5384 H           1 GYN       0.0329
     48 H11         7.1505   25.0441  -15.2935 H           1 GYN       0.0417
     49 H12         6.4712   22.7951  -16.1436 H           1 GYN       0.0226
     50 H13         7.4002   21.3497  -15.7617 H           1 GYN       0.0226
     51 H14         9.0864   21.8857  -17.3341 H           1 GYN       0.0362
     52 H15         7.5693   22.2880  -18.1252 H           1 GYN       0.0362
     53 H16         9.9212   25.4013  -14.3479 H           1 GYN       0.0252
     54 H17         6.4560   26.4318  -13.4508 H           1 GYN       0.0377
     55 H18         6.8979   27.4474  -14.8140 H           1 GYN       0.0377
     56 H19         6.9754   28.0807  -13.1883 H           1 GYN       0.0377
     57 H20        10.5476   27.1233  -13.0972 H           1 GYN       0.0742
     58 H21         8.8671   29.2753  -13.7256 H           1 GYN       0.2129
     59 H22         8.3676   28.4652  -11.4334 H           1 GYN       0.0312
     60 H23        10.0727   28.8279  -11.3863 H           1 GYN       0.0312
     61 H24         9.6554   27.4624   -9.5185 H           1 GYN       0.0293
     62 H25        10.5826   26.4965  -10.6512 H           1 GYN       0.0293
     63 H26         8.5317   25.2884  -11.2986 H           1 GYN       0.0598
     64 H27         9.7107   25.0556   -8.6560 H           1 GYN       0.0295
     65 H28         8.8497   23.8314   -9.5933 H           1 GYN       0.0295
     66 H29         7.2331   23.9733   -7.9569 H           1 GYN       0.0345
     67 H30         6.8695   26.0010   -6.4980 H           1 GYN       0.0235
     68 H31         8.2397   26.7846   -7.3221 H           1 GYN       0.0235
     69 H32         8.4911   25.3153   -6.3749 H           1 GYN       0.0235
     70 H33         5.7943   26.2452   -8.7247 H           1 GYN       0.0747
     71 H34         3.7169   23.8321   -9.6109 H           1 GYN       0.0376
     72 H35         4.6266   24.1562   -8.1373 H           1 GYN       0.0376
     73 H36         5.0508   22.7573   -9.1177 H           1 GYN       0.0376
     74 H37         6.3447   24.9606  -11.7885 H           1 GYN       0.0245
     75 H38         4.2182   23.2496  -12.1310 H           1 GYN       0.0369
     76 H39         5.5312   22.2625  -11.5013 H           1 GYN       0.0369
     77 H40         5.6291   23.9917  -14.0091 H           1 GYN       0.0520
     78 H41         5.4740   22.2513  -13.9732 H           1 GYN       0.0520
     79 H42         9.3102   20.9342  -12.3315 H           1 GYN       0.0507
     80 H43         9.5114   22.2998  -11.2374 H           1 GYN       0.0507
     81 H44        11.2089   22.1316  -13.1937 H           1 GYN       0.0277
     82 H45        10.4485   23.6972  -12.9224 H           1 GYN       0.0277
     83 H46        10.3641   23.1256  -15.3388 H           1 GYN       0.0210
     84 H47         9.6888   21.5575  -14.9482 H           1 GYN       0.0210
@<TRIPOS>BOND
     1     1     2   2
     2     2     3   1
     3     2     6   1
     4     3     4   1
     5     4     5   1
     6     4     8   1
     7     5     6   1
     8     6     7   1
     9     8     9   2
    10     8    14   1
    11     9    10   1
    12     9    11   1
    13    11    12   1
    14    11    15   1
    15    12    13   1
    16    12    33   1
    17    12    37   1
    18    13    14   1
    19    15    16   2
    20    16    17   1
    21    16    18   1
    22    18    19   1
    23    18    20   1
    24    20    21   1
    25    21    22   1
    26    22    23   1
    27    22    26   1
    28    23    24   1
    29    24    25   1
    30    24    27   1
    31    26    27   1
    32    27    28   1
    33    28    29   1
    34    28    30   2
    35    30    31   1
    36    31    32   1
    37    32    33   1
    38    33    34   2
    39    34    35   1
    40    35    36   1
    41    36    37   1
    42     4    38   1
    43     5    39   1
    44     5    40   1
    45     6    41   1
    46     7    42   1
    47     7    43   1
    48     7    44   1
    49    10    45   1
    50    10    46   1
    51    10    47   1
    52    11    48   1
    53    13    49   1
    54    13    50   1
    55    14    51   1
    56    14    52   1
    57    15    53   1
    58    17    54   1
    59    17    55   1
    60    17    56   1
    61    18    57   1
    62    19    58   1
    63    20    59   1
    64    20    60   1
    65    21    61   1
    66    21    62   1
    67    22    63   1
    68    23    64   1
    69    23    65   1
    70    24    66   1
    71    25    67   1
    72    25    68   1
    73    25    69   1
    74    27    70   1
    75    29    71   1
    76    29    72   1
    77    29    73   1
    78    30    74   1
    79    31    75   1
    80    31    76   1
    81    32    77   1
    82    32    78   1
    83    35    79   1
    84    35    80   1
    85    36    81   1
    86    36    82   1
    87    37    83   1
    88    37    84   1
@<TRIPOS>SUBSTRUCTURE
     1  GYN      2

