@<TRIPOS>MOLECULE
2x00_ligand_047
    84    88
SMALL
GAST_HUCK
****
This file was generated by PARSER (from files_GN.cpp)

@<TRIPOS>ATOM
      1 O6         -6.0240   28.0604   -8.0172 O.2         1 GYN      -0.3700
      2 C5         -4.7457   28.4134   -8.2849 C.2         1 GYN       0.2385
      3 O1         -3.7278   27.5320   -8.2486 O.3         1 GYN      -0.2655
      4 C2         -2.4652   28.0938   -8.6190 C.3         1 GYN       0.1059
      5 C3         -2.7997   29.5952   -8.8773 C.3         1 GYN       0.0041
      6 C4         -4.3347   29.7548   -8.6965 C.3         1 GYN       0.0613
      7 C7         -4.7489   30.8369   -7.6666 C.3         1 GYN      -0.0438
      8 C8         -1.3895   27.8684   -7.6200 C.2         1 GYN      -0.0559
      9 C13        -0.0694   27.7031   -7.9366 C.2         1 GYN      -0.0876
     10 C14         0.3853   28.0847   -9.2850 C.3         1 GYN      -0.0498
     11 C12         0.9683   27.3087   -6.9256 C.3         1 GYN      -0.0250
     12 C27         0.3814   26.7761   -5.5376 C.3         1 GYN       0.0148
     13 C10        -0.7329   27.8130   -5.1503 C.3         1 GYN      -0.0494
     14 C9         -1.8359   27.8917   -6.2296 C.3         1 GYN      -0.0395
     15 C15         1.9589   26.3832   -7.5215 C.2         1 GYN      -0.1023
     16 C16         3.2437   26.6168   -7.9040 C.2         1 GYN      -0.0548
     17 C19         3.9026   27.8999   -7.5992 C.3         1 GYN      -0.0377
     18 C17         3.9219   25.6393   -8.8101 C.3         1 GYN       0.0804
     19 O20         3.9621   26.2073  -10.1216 O.3         1 GYN      -0.3807
     20 C18         5.3599   25.1421   -8.4515 C.3         1 GYN      -0.0158
     21 C21         5.4707   23.9700   -7.4391 C.3         1 GYN      -0.0223
     22 C43         5.1846   24.3292   -5.9572 C.3         1 GYN       0.0623
     23 C47         5.4614   23.1818   -4.9654 C.3         1 GYN      -0.0197
     24 C48         5.6047   23.9288   -3.6274 C.3         1 GYN      -0.0066
     25 C49         6.4730   23.1934   -2.5747 C.3         1 GYN      -0.0582
     26 O43         6.0227   25.3958   -5.5011 O.3         1 GYN      -0.3622
     27 C37         6.1548   25.3205   -4.0659 C.3         1 GYN       0.0865
     28 C36         5.5007   26.4343   -3.3478 C.2         1 GYN      -0.0553
     29 C38         6.0316   26.8741   -2.0597 C.3         1 GYN      -0.0379
     30 C35         4.3403   26.9300   -3.8244 C.2         1 GYN      -0.1039
     31 C34         3.3861   27.7744   -3.1196 C.3         1 GYN      -0.0315
     32 C33         2.0363   27.9687   -3.8829 C.3         1 GYN       0.0100
     33 C32         1.3696   26.7588   -4.4065 C.2         1 GYN       0.0383
     34 N31         1.6035   25.6791   -3.7333 N.2         1 GYN      -0.2722
     35 C30         1.1892   24.3691   -3.9223 C.3         1 GYN       0.0432
     36 C46         0.6064   24.1524   -5.3318 C.3         1 GYN      -0.0375
     37 C28        -0.3120   25.3475   -5.6837 C.3         1 GYN      -0.0530
     38 H1         -2.2319   27.5936   -9.5608 H           1 GYN       0.0753
     39 H2         -2.5167   29.8811   -9.8949 H           1 GYN       0.0338
     40 H3         -2.2540   30.2478   -8.1900 H           1 GYN       0.0338
     41 H4         -4.8051   29.9818   -9.6572 H           1 GYN       0.0553
     42 H5         -5.8364   30.8880   -7.5864 H           1 GYN       0.0258
     43 H6         -4.3837   31.8134   -7.9890 H           1 GYN       0.0258
     44 H7         -4.3352   30.6172   -6.6798 H           1 GYN       0.0258
     45 H8         -0.0096   29.0652   -9.5587 H           1 GYN       0.0329
     46 H9          0.0531   27.3411  -10.0139 H           1 GYN       0.0329
     47 H10         1.4667   28.1683   -9.3797 H           1 GYN       0.0329
     48 H11         1.4616   28.2573   -6.7151 H           1 GYN       0.0417
     49 H12        -0.3034   28.8133   -5.0422 H           1 GYN       0.0226
     50 H13        -1.1937   27.5577   -4.1867 H           1 GYN       0.0226
     51 H14        -2.5193   27.0506   -6.0773 H           1 GYN       0.0362
     52 H15        -2.4010   28.8083   -6.0420 H           1 GYN       0.0362
     53 H16         1.5656   25.5306   -7.8234 H           1 GYN       0.0252
     54 H17         3.3608   28.7347   -8.0407 H           1 GYN       0.0377
     55 H18         4.9221   27.9536   -7.9757 H           1 GYN       0.0377
     56 H19         3.9434   28.0591   -6.5253 H           1 GYN       0.0377
     57 H20         3.3183   24.7384   -8.9094 H           1 GYN       0.0742
     58 H21         4.7085   26.8636  -10.1273 H           1 GYN       0.2129
     59 H22         5.9936   25.9674   -8.1117 H           1 GYN       0.0312
     60 H23         5.8099   24.7778   -9.3714 H           1 GYN       0.0312
     61 H24         6.4866   23.5734   -7.5034 H           1 GYN       0.0293
     62 H25         4.7929   23.1698   -7.7533 H           1 GYN       0.0293
     63 H26         4.1335   24.6131   -5.8777 H           1 GYN       0.0598
     64 H27         6.3922   22.6686   -5.2234 H           1 GYN       0.0295
     65 H28         4.6411   22.4580   -4.9476 H           1 GYN       0.0295
     66 H29         4.6003   24.0362   -3.2012 H           1 GYN       0.0345
     67 H30         6.5149   23.7725   -1.6534 H           1 GYN       0.0235
     68 H31         7.4906   23.0448   -2.9376 H           1 GYN       0.0235
     69 H32         6.0392   22.2203   -2.3449 H           1 GYN       0.0235
     70 H33         7.2350   25.3647   -3.8938 H           1 GYN       0.0747
     71 H34         6.1890   27.9521   -2.0806 H           1 GYN       0.0376
     72 H35         6.9860   26.4051   -1.8163 H           1 GYN       0.0376
     73 H36         5.3315   26.6306   -1.2597 H           1 GYN       0.0376
     74 H37         4.0490   26.6157   -4.7129 H           1 GYN       0.0245
     75 H38         3.8341   28.7537   -2.9314 H           1 GYN       0.0369
     76 H39         3.1573   27.3165   -2.1538 H           1 GYN       0.0369
     77 H40         2.2364   28.6711   -4.6915 H           1 GYN       0.0520
     78 H41         1.3401   28.4656   -3.2031 H           1 GYN       0.0520
     79 H42         0.4453   24.1253   -3.1586 H           1 GYN       0.0507
     80 H43         2.0448   23.7085   -3.7855 H           1 GYN       0.0507
     81 H44         0.0420   23.2156   -5.3678 H           1 GYN       0.0277
     82 H45         1.4236   24.0767   -6.0458 H           1 GYN       0.0277
     83 H46        -0.7002   25.1972   -6.6939 H           1 GYN       0.0210
     84 H47        -1.1737   25.2709   -5.0092 H           1 GYN       0.0210
@<TRIPOS>BOND
     1     1     2   2
     2     2     3   1
     3     2     6   1
     4     3     4   1
     5     4     5   1
     6     4     8   1
     7     5     6   1
     8     6     7   1
     9     8     9   2
    10     8    14   1
    11     9    10   1
    12     9    11   1
    13    11    12   1
    14    11    15   1
    15    12    13   1
    16    12    33   1
    17    12    37   1
    18    13    14   1
    19    15    16   2
    20    16    17   1
    21    16    18   1
    22    18    19   1
    23    18    20   1
    24    20    21   1
    25    21    22   1
    26    22    23   1
    27    22    26   1
    28    23    24   1
    29    24    25   1
    30    24    27   1
    31    26    27   1
    32    27    28   1
    33    28    29   1
    34    28    30   2
    35    30    31   1
    36    31    32   1
    37    32    33   1
    38    33    34   2
    39    34    35   1
    40    35    36   1
    41    36    37   1
    42     4    38   1
    43     5    39   1
    44     5    40   1
    45     6    41   1
    46     7    42   1
    47     7    43   1
    48     7    44   1
    49    10    45   1
    50    10    46   1
    51    10    47   1
    52    11    48   1
    53    13    49   1
    54    13    50   1
    55    14    51   1
    56    14    52   1
    57    15    53   1
    58    17    54   1
    59    17    55   1
    60    17    56   1
    61    18    57   1
    62    19    58   1
    63    20    59   1
    64    20    60   1
    65    21    61   1
    66    21    62   1
    67    22    63   1
    68    23    64   1
    69    23    65   1
    70    24    66   1
    71    25    67   1
    72    25    68   1
    73    25    69   1
    74    27    70   1
    75    29    71   1
    76    29    72   1
    77    29    73   1
    78    30    74   1
    79    31    75   1
    80    31    76   1
    81    32    77   1
    82    32    78   1
    83    35    79   1
    84    35    80   1
    85    36    81   1
    86    36    82   1
    87    37    83   1
    88    37    84   1
@<TRIPOS>SUBSTRUCTURE
     1  GYN      2

