@<TRIPOS>MOLECULE
2x00_ligand_032
    84    88
SMALL
GAST_HUCK
****
This file was generated by PARSER (from files_GN.cpp)

@<TRIPOS>ATOM
      1 O6         -6.1488   27.9956   -5.8891 O.2         1 GYN      -0.3700
      2 C5         -5.1765   27.4626   -6.6699 C.2         1 GYN       0.2385
      3 O1         -4.2201   26.6467   -6.1845 O.3         1 GYN      -0.2655
      4 C2         -3.3115   26.1780   -7.1710 C.3         1 GYN       0.1059
      5 C3         -3.8904   26.7566   -8.5057 C.3         1 GYN       0.0041
      6 C4         -5.0764   27.6789   -8.1144 C.3         1 GYN       0.0613
      7 C7         -4.8816   29.1794   -8.4577 C.3         1 GYN      -0.0438
      8 C8         -1.9179   26.4931   -6.7264 C.2         1 GYN      -0.0559
      9 C13        -1.0512   25.5731   -6.1966 C.2         1 GYN      -0.0876
     10 C14        -1.3313   24.1296   -6.3684 C.3         1 GYN      -0.0498
     11 C12         0.2653   25.9344   -5.5487 C.3         1 GYN      -0.0250
     12 C27         0.5038   27.4996   -5.2794 C.3         1 GYN       0.0148
     13 C10        -0.0593   28.2224   -6.5450 C.3         1 GYN      -0.0494
     14 C9         -1.5559   27.9161   -6.7682 C.3         1 GYN      -0.0395
     15 C15         0.4776   25.1328   -4.3214 C.2         1 GYN      -0.1023
     16 C16         1.3576   24.1323   -4.0555 C.2         1 GYN      -0.0548
     17 C19         2.3859   23.7351   -5.0180 C.3         1 GYN      -0.0377
     18 C17         1.0756   23.2196   -2.9239 C.3         1 GYN       0.0804
     19 O20         0.8110   21.9431   -3.5067 O.3         1 GYN      -0.3807
     20 C18         2.1226   23.0333   -1.7874 C.3         1 GYN      -0.0158
     21 C21         2.3292   24.2328   -0.8158 C.3         1 GYN      -0.0223
     22 C43         3.1739   25.3900   -1.4029 C.3         1 GYN       0.0623
     23 C47         3.6715   26.4518   -0.3956 C.3         1 GYN      -0.0197
     24 C48         5.1847   26.5985   -0.6860 C.3         1 GYN      -0.0066
     25 C49         6.0666   26.1057    0.4970 C.3         1 GYN      -0.0582
     26 O43         4.3448   24.8409   -2.0275 O.3         1 GYN      -0.3622
     27 C37         5.4076   25.7982   -2.0048 C.3         1 GYN       0.0865
     28 C36         5.5319   26.6298   -3.2234 C.2         1 GYN      -0.0553
     29 C38         6.7665   27.3932   -3.3971 C.3         1 GYN      -0.0379
     30 C35         4.5288   26.7134   -4.1273 C.2         1 GYN      -0.1039
     31 C34         4.4528   27.5537   -5.3118 C.3         1 GYN      -0.0315
     32 C33         3.0524   27.5933   -6.0127 C.3         1 GYN       0.0100
     33 C32         1.9245   27.9753   -5.1440 C.2         1 GYN       0.0383
     34 N31         2.1813   29.0432   -4.4583 N.2         1 GYN      -0.2722
     35 C30         1.3867   29.8357   -3.6359 C.3         1 GYN       0.0432
     36 C46        -0.1179   29.4777   -3.6696 C.3         1 GYN      -0.0375
     37 C28        -0.2725   27.9680   -3.9719 C.3         1 GYN      -0.0530
     38 H1         -3.4987   25.1093   -7.2141 H           1 GYN       0.0753
     39 H2         -4.2907   25.9365   -9.1147 H           1 GYN       0.0338
     40 H3         -3.1495   27.2932   -9.1114 H           1 GYN       0.0338
     41 H4         -5.9963   27.3241   -8.5883 H           1 GYN       0.0553
     42 H5         -5.7525   29.7558   -8.1341 H           1 GYN       0.0258
     43 H6         -4.7750   29.3019   -9.5359 H           1 GYN       0.0258
     44 H7         -3.9951   29.5938   -7.9707 H           1 GYN       0.0258
     45 H8         -1.4874   23.8940   -7.4232 H           1 GYN       0.0329
     46 H9         -2.2185   23.8426   -5.7976 H           1 GYN       0.0329
     47 H10        -0.5272   23.4759   -6.0364 H           1 GYN       0.0329
     48 H11         0.9814   25.6152   -6.3022 H           1 GYN       0.0417
     49 H12         0.4856   27.8760   -7.4306 H           1 GYN       0.0226
     50 H13         0.0777   29.3077   -6.4958 H           1 GYN       0.0226
     51 H14        -2.1548   28.4629   -6.0388 H           1 GYN       0.0362
     52 H15        -1.7770   28.3368   -7.7499 H           1 GYN       0.0362
     53 H16        -0.2286   25.2796   -3.6424 H           1 GYN       0.0252
     54 H17         1.9126   23.2919   -5.8901 H           1 GYN       0.0377
     55 H18         3.0748   22.9963   -4.6064 H           1 GYN       0.0377
     56 H19         2.9804   24.5767   -5.3517 H           1 GYN       0.0377
     57 H20         0.1537   23.4972   -2.4109 H           1 GYN       0.0742
     58 H21         0.5075   21.3690   -2.7769 H           1 GYN       0.2129
     59 H22         3.0758   22.7026   -2.2035 H           1 GYN       0.0312
     60 H23         1.7638   22.2125   -1.1617 H           1 GYN       0.0312
     61 H24         2.8357   23.8560    0.0770 H           1 GYN       0.0293
     62 H25         1.3576   24.6218   -0.4975 H           1 GYN       0.0293
     63 H26         2.5493   25.8924   -2.1440 H           1 GYN       0.0598
     64 H27         3.4761   26.1560    0.6392 H           1 GYN       0.0295
     65 H28         3.1597   27.4043   -0.5717 H           1 GYN       0.0295
     66 H29         5.4091   27.6572   -0.8408 H           1 GYN       0.0345
     67 H30         7.1243   26.1946    0.2447 H           1 GYN       0.0235
     68 H31         5.8535   25.0649    0.7352 H           1 GYN       0.0235
     69 H32         5.8759   26.7074    1.3880 H           1 GYN       0.0235
     70 H33         6.3172   25.1941   -1.9363 H           1 GYN       0.0747
     71 H34         7.1575   27.2735   -4.4090 H           1 GYN       0.0376
     72 H35         7.5531   27.0730   -2.7111 H           1 GYN       0.0376
     73 H36         6.5693   28.4481   -3.2067 H           1 GYN       0.0376
     74 H37         3.7300   26.1685   -3.9691 H           1 GYN       0.0245
     75 H38         5.1937   27.2075   -6.0350 H           1 GYN       0.0369
     76 H39         4.7072   28.5742   -5.0257 H           1 GYN       0.0369
     77 H40         2.8886   26.6314   -6.4905 H           1 GYN       0.0520
     78 H41         3.1124   28.3253   -6.8250 H           1 GYN       0.0520
     79 H42         1.5187   30.8768   -3.9368 H           1 GYN       0.0507
     80 H43         1.7650   29.7216   -2.6179 H           1 GYN       0.0507
     81 H44        -0.6300   30.0728   -4.4285 H           1 GYN       0.0277
     82 H45        -0.5765   29.7147   -2.7062 H           1 GYN       0.0277
     83 H46         0.1380   27.4540   -3.0978 H           1 GYN       0.0210
     84 H47        -1.3333   27.7133   -4.0147 H           1 GYN       0.0210
@<TRIPOS>BOND
     1     1     2   2
     2     2     3   1
     3     2     6   1
     4     3     4   1
     5     4     5   1
     6     4     8   1
     7     5     6   1
     8     6     7   1
     9     8     9   2
    10     8    14   1
    11     9    10   1
    12     9    11   1
    13    11    12   1
    14    11    15   1
    15    12    13   1
    16    12    33   1
    17    12    37   1
    18    13    14   1
    19    15    16   2
    20    16    17   1
    21    16    18   1
    22    18    19   1
    23    18    20   1
    24    20    21   1
    25    21    22   1
    26    22    23   1
    27    22    26   1
    28    23    24   1
    29    24    25   1
    30    24    27   1
    31    26    27   1
    32    27    28   1
    33    28    29   1
    34    28    30   2
    35    30    31   1
    36    31    32   1
    37    32    33   1
    38    33    34   2
    39    34    35   1
    40    35    36   1
    41    36    37   1
    42     4    38   1
    43     5    39   1
    44     5    40   1
    45     6    41   1
    46     7    42   1
    47     7    43   1
    48     7    44   1
    49    10    45   1
    50    10    46   1
    51    10    47   1
    52    11    48   1
    53    13    49   1
    54    13    50   1
    55    14    51   1
    56    14    52   1
    57    15    53   1
    58    17    54   1
    59    17    55   1
    60    17    56   1
    61    18    57   1
    62    19    58   1
    63    20    59   1
    64    20    60   1
    65    21    61   1
    66    21    62   1
    67    22    63   1
    68    23    64   1
    69    23    65   1
    70    24    66   1
    71    25    67   1
    72    25    68   1
    73    25    69   1
    74    27    70   1
    75    29    71   1
    76    29    72   1
    77    29    73   1
    78    30    74   1
    79    31    75   1
    80    31    76   1
    81    32    77   1
    82    32    78   1
    83    35    79   1
    84    35    80   1
    85    36    81   1
    86    36    82   1
    87    37    83   1
    88    37    84   1
@<TRIPOS>SUBSTRUCTURE
     1  GYN      2

