@<TRIPOS>MOLECULE
2x00_ligand_036
    84    88
SMALL
GAST_HUCK
****
This file was generated by PARSER (from files_GN.cpp)

@<TRIPOS>ATOM
      1 O6         -4.6954   35.8908  -12.8687 O.2         1 GYN      -0.3700
      2 C5         -3.4890   35.2930  -12.7421 C.2         1 GYN       0.2385
      3 O1         -3.3563   33.9993  -12.3929 O.3         1 GYN      -0.2655
      4 C2         -1.9994   33.5546  -12.3377 C.3         1 GYN       0.1059
      5 C3         -1.1925   34.8151  -12.7703 C.3         1 GYN       0.0041
      6 C4         -2.2142   35.9581  -13.0009 C.3         1 GYN       0.0613
      7 C7         -1.9960   37.1900  -12.0867 C.3         1 GYN      -0.0438
      8 C8         -1.5873   32.9778  -11.0295 C.2         1 GYN      -0.0559
      9 C13        -0.4874   32.1764  -10.8750 C.2         1 GYN      -0.0876
     10 C14         0.4812   32.0677  -11.9872 C.3         1 GYN      -0.0498
     11 C12        -0.1387   31.5221   -9.5678 C.3         1 GYN      -0.0250
     12 C27        -1.3021   31.5269   -8.4648 C.3         1 GYN       0.0148
     13 C10        -1.8829   32.9812   -8.4952 C.3         1 GYN      -0.0494
     14 C9         -2.4207   33.3712   -9.8876 C.3         1 GYN      -0.0395
     15 C15         0.4227   30.1675   -9.7833 C.2         1 GYN      -0.1023
     16 C16         1.6991   29.7250   -9.6521 C.2         1 GYN      -0.0548
     17 C19         2.7627   30.5817   -9.1210 C.3         1 GYN      -0.0377
     18 C17         2.0794   28.4052  -10.2030 C.3         1 GYN       0.0804
     19 O20         3.0335   28.6238  -11.2455 O.3         1 GYN      -0.3807
     20 C18         2.6569   27.3721   -9.1821 C.3         1 GYN      -0.0158
     21 C21         1.5994   26.5519   -8.3887 C.3         1 GYN      -0.0223
     22 C43         0.9688   27.2805   -7.1723 C.3         1 GYN       0.0623
     23 C47        -0.1810   26.4905   -6.5082 C.3         1 GYN      -0.0197
     24 C48         0.1247   26.5532   -4.9947 C.3         1 GYN      -0.0066
     25 C49         0.5104   25.1685   -4.4047 C.3         1 GYN      -0.0582
     26 O43         1.9576   27.4710   -6.1489 O.3         1 GYN      -0.3622
     27 C37         1.2864   27.5897   -4.8809 C.3         1 GYN       0.0865
     28 C36         0.8787   28.9562   -4.4887 C.2         1 GYN      -0.0553
     29 C38         0.1834   29.1227   -3.2091 C.3         1 GYN      -0.0379
     30 C35         1.2309   30.0337   -5.2289 C.2         1 GYN      -0.1039
     31 C34         0.7984   31.4165   -5.0618 C.3         1 GYN      -0.0315
     32 C33         0.1974   32.0267   -6.3661 C.3         1 GYN       0.0100
     33 C32        -0.8784   31.2835   -7.0442 C.2         1 GYN       0.0383
     34 N31        -1.6690   30.6737   -6.2222 N.2         1 GYN      -0.2722
     35 C30        -2.9020   30.0521   -6.4060 C.3         1 GYN       0.0432
     36 C46        -3.5423   30.3501   -7.7821 C.3         1 GYN      -0.0375
     37 C28        -2.4200   30.4600   -8.8393 C.3         1 GYN      -0.0530
     38 H1         -1.9410   32.7826  -13.1106 H           1 GYN       0.0753
     39 H2         -0.6534   34.6106  -13.7010 H           1 GYN       0.0338
     40 H3         -0.4529   35.1002  -12.0153 H           1 GYN       0.0338
     41 H4         -2.1952   36.2794  -14.0478 H           1 GYN       0.0553
     42 H5         -2.7618   37.9447  -12.2767 H           1 GYN       0.0258
     43 H6         -1.0196   37.6337  -12.2904 H           1 GYN       0.0258
     44 H7         -2.0368   36.9054  -11.0325 H           1 GYN       0.0258
     45 H8          1.3819   31.5102  -11.7429 H           1 GYN       0.0329
     46 H9          0.8292   33.0520  -12.2949 H           1 GYN       0.0329
     47 H10         0.0199   31.5667  -12.8383 H           1 GYN       0.0329
     48 H11         0.6512   32.1705   -9.1978 H           1 GYN       0.0417
     49 H12        -1.0931   33.6979   -8.2471 H           1 GYN       0.0226
     50 H13        -2.6761   33.1218   -7.7561 H           1 GYN       0.0226
     51 H14        -3.4185   32.9425  -10.0106 H           1 GYN       0.0362
     52 H15        -2.5369   34.4596   -9.8866 H           1 GYN       0.0362
     53 H16        -0.2033   29.5420  -10.2273 H           1 GYN       0.0252
     54 H17         2.8450   31.5007   -9.7029 H           1 GYN       0.0377
     55 H18         3.7438   30.1035   -9.1492 H           1 GYN       0.0377
     56 H19         2.5584   30.8318   -8.0851 H           1 GYN       0.0377
     57 H20         1.2406   27.9141  -10.7058 H           1 GYN       0.0742
     58 H21         2.5281   29.0759  -11.9558 H           1 GYN       0.2129
     59 H22         3.3496   27.8495   -8.4855 H           1 GYN       0.0312
     60 H23         3.2442   26.6455   -9.7502 H           1 GYN       0.0312
     61 H24         2.0831   25.6432   -8.0167 H           1 GYN       0.0293
     62 H25         0.8059   26.2350   -9.0711 H           1 GYN       0.0293
     63 H26         0.5892   28.2544   -7.4927 H           1 GYN       0.0598
     64 H27        -0.2325   25.4583   -6.8682 H           1 GYN       0.0295
     65 H28        -1.1400   26.9676   -6.7302 H           1 GYN       0.0295
     66 H29        -0.7758   26.8862   -4.4687 H           1 GYN       0.0345
     67 H30         0.7200   25.2601   -3.3371 H           1 GYN       0.0235
     68 H31         1.3954   24.7661   -4.9027 H           1 GYN       0.0235
     69 H32        -0.3137   24.4645   -4.5312 H           1 GYN       0.0235
     70 H33         2.0099   27.2682   -4.1261 H           1 GYN       0.0747
     71 H34         0.7188   29.8358   -2.5790 H           1 GYN       0.0376
     72 H35         0.1162   28.1908   -2.6442 H           1 GYN       0.0376
     73 H36        -0.8323   29.4837   -3.3797 H           1 GYN       0.0376
     74 H37         1.8559   29.8906   -5.9849 H           1 GYN       0.0245
     75 H38         1.6693   32.0094   -4.7712 H           1 GYN       0.0369
     76 H39         0.0621   31.5319   -4.2645 H           1 GYN       0.0369
     77 H40         1.0274   32.2024   -7.0424 H           1 GYN       0.0520
     78 H41        -0.1958   33.0105   -6.1025 H           1 GYN       0.0520
     79 H42        -3.5789   30.3817   -5.6150 H           1 GYN       0.0507
     80 H43        -2.7498   28.9772   -6.2941 H           1 GYN       0.0507
     81 H44        -4.1143   31.2786   -7.7396 H           1 GYN       0.0277
     82 H45        -4.2341   29.5471   -8.0505 H           1 GYN       0.0277
     83 H46        -1.9816   29.4619   -8.8878 H           1 GYN       0.0210
     84 H47        -2.8624   30.6544   -9.8170 H           1 GYN       0.0210
@<TRIPOS>BOND
     1     1     2   2
     2     2     3   1
     3     2     6   1
     4     3     4   1
     5     4     5   1
     6     4     8   1
     7     5     6   1
     8     6     7   1
     9     8     9   2
    10     8    14   1
    11     9    10   1
    12     9    11   1
    13    11    12   1
    14    11    15   1
    15    12    13   1
    16    12    33   1
    17    12    37   1
    18    13    14   1
    19    15    16   2
    20    16    17   1
    21    16    18   1
    22    18    19   1
    23    18    20   1
    24    20    21   1
    25    21    22   1
    26    22    23   1
    27    22    26   1
    28    23    24   1
    29    24    25   1
    30    24    27   1
    31    26    27   1
    32    27    28   1
    33    28    29   1
    34    28    30   2
    35    30    31   1
    36    31    32   1
    37    32    33   1
    38    33    34   2
    39    34    35   1
    40    35    36   1
    41    36    37   1
    42     4    38   1
    43     5    39   1
    44     5    40   1
    45     6    41   1
    46     7    42   1
    47     7    43   1
    48     7    44   1
    49    10    45   1
    50    10    46   1
    51    10    47   1
    52    11    48   1
    53    13    49   1
    54    13    50   1
    55    14    51   1
    56    14    52   1
    57    15    53   1
    58    17    54   1
    59    17    55   1
    60    17    56   1
    61    18    57   1
    62    19    58   1
    63    20    59   1
    64    20    60   1
    65    21    61   1
    66    21    62   1
    67    22    63   1
    68    23    64   1
    69    23    65   1
    70    24    66   1
    71    25    67   1
    72    25    68   1
    73    25    69   1
    74    27    70   1
    75    29    71   1
    76    29    72   1
    77    29    73   1
    78    30    74   1
    79    31    75   1
    80    31    76   1
    81    32    77   1
    82    32    78   1
    83    35    79   1
    84    35    80   1
    85    36    81   1
    86    36    82   1
    87    37    83   1
    88    37    84   1
@<TRIPOS>SUBSTRUCTURE
     1  GYN      2

