@<TRIPOS>MOLECULE
2x00_ligand_006
    84    88
SMALL
GAST_HUCK
****
This file was generated by PARSER (from files_GN.cpp)

@<TRIPOS>ATOM
      1 O6         13.3028   23.2609  -20.5562 O.2         1 GYN      -0.3700
      2 C5         11.9505   23.2361  -20.5568 C.2         1 GYN       0.2385
      3 O1         11.2197   24.1435  -19.8838 O.3         1 GYN      -0.2655
      4 C2          9.8156   23.9602  -20.0236 C.3         1 GYN       0.1059
      5 C3          9.6981   22.7874  -21.0535 C.3         1 GYN       0.0041
      6 C4         11.1424   22.2599  -21.2793 C.3         1 GYN       0.0613
      7 C7         11.3991   20.8181  -20.7702 C.3         1 GYN      -0.0438
      8 C8          9.2341   23.8432  -18.6551 C.2         1 GYN      -0.0559
      9 C13         8.6556   24.8867  -17.9780 C.2         1 GYN      -0.0876
     10 C14         8.2136   26.0743  -18.7321 C.3         1 GYN      -0.0498
     11 C12         8.3232   24.8469  -16.5088 C.3         1 GYN      -0.0250
     12 C27         8.8372   23.5618  -15.6921 C.3         1 GYN       0.0148
     13 C10         8.6636   22.3551  -16.6738 C.3         1 GYN      -0.0494
     14 C9          9.4548   22.5551  -17.9804 C.3         1 GYN      -0.0395
     15 C15         8.7264   26.1150  -15.8486 C.2         1 GYN      -0.1023
     16 C16         7.9695   27.0928  -15.2865 C.2         1 GYN      -0.0548
     17 C19         6.5051   27.0338  -15.3072 C.3         1 GYN      -0.0377
     18 C17         8.6165   28.3311  -14.7958 C.3         1 GYN       0.0804
     19 O20         8.1801   29.3891  -15.6537 O.3         1 GYN      -0.3807
     20 C18         8.3618   28.7419  -13.3068 C.3         1 GYN      -0.0158
     21 C21         9.1329   27.9473  -12.2098 C.3         1 GYN      -0.0223
     22 C43         8.5186   26.5742  -11.8358 C.3         1 GYN       0.0623
     23 C47         9.2935   25.8058  -10.7400 C.3         1 GYN      -0.0197
     24 C48         8.2587   25.5628   -9.6218 C.3         1 GYN      -0.0066
     25 C49         8.4123   26.5690   -8.4506 C.3         1 GYN      -0.0582
     26 O43         7.1824   26.7484  -11.3275 O.3         1 GYN      -0.3622
     27 C37         6.9001   25.7113  -10.3656 C.3         1 GYN       0.0865
     28 C36         6.3676   24.4415  -10.9115 C.2         1 GYN      -0.0553
     29 C38         5.9512   23.3956   -9.9735 C.3         1 GYN      -0.0379
     30 C35         6.2160   24.2728  -12.2418 C.2         1 GYN      -0.1039
     31 C34         5.9441   23.0423  -12.9669 C.3         1 GYN      -0.0315
     32 C33         6.5989   23.0106  -14.3912 C.3         1 GYN       0.0100
     33 C32         8.0671   23.1830  -14.4574 C.2         1 GYN       0.0383
     34 N31         8.6751   22.6107  -13.4703 N.2         1 GYN      -0.2722
     35 C30        10.0135   22.3127  -13.2332 C.3         1 GYN       0.0432
     36 C46        10.9200   22.5441  -14.4596 C.3         1 GYN      -0.0375
     37 C28        10.3634   23.7354  -15.2752 C.3         1 GYN      -0.0530
     38 H1          9.4596   24.8430  -20.5518 H           1 GYN       0.0753
     39 H2          9.3159   23.1612  -22.0066 H           1 GYN       0.0338
     40 H3          9.0077   22.0013  -20.7550 H           1 GYN       0.0338
     41 H4         11.3977   22.3117  -22.3392 H           1 GYN       0.0553
     42 H5         12.4196   20.5149  -21.0110 H           1 GYN       0.0258
     43 H6         10.7121   20.1251  -21.2526 H           1 GYN       0.0258
     44 H7         11.2633   20.7513  -19.6927 H           1 GYN       0.0258
     45 H8          7.5512   25.7793  -19.5472 H           1 GYN       0.0329
     46 H9          9.0734   26.6118  -19.1365 H           1 GYN       0.0329
     47 H10         7.6543   26.7912  -18.1408 H           1 GYN       0.0329
     48 H11         7.2383   24.7962  -16.5270 H           1 GYN       0.0417
     49 H12         7.6080   22.2440  -16.9476 H           1 GYN       0.0226
     50 H13         8.9647   21.4062  -16.2191 H           1 GYN       0.0226
     51 H14        10.5217   22.4160  -17.7984 H           1 GYN       0.0362
     52 H15         9.1433   21.7251  -18.6091 H           1 GYN       0.0362
     53 H16         9.7005   26.3019  -15.9143 H           1 GYN       0.0252
     54 H17         6.1358   26.9681  -16.3296 H           1 GYN       0.0377
     55 H18         6.0430   27.9162  -14.8647 H           1 GYN       0.0377
     56 H19         6.1488   26.1710  -14.7584 H           1 GYN       0.0377
     57 H20         9.7033   28.2939  -14.9218 H           1 GYN       0.0742
     58 H21         8.7883   30.1398  -15.4836 H           1 GYN       0.2129
     59 H22         7.2950   28.7321  -13.0782 H           1 GYN       0.0312
     60 H23         8.6848   29.7837  -13.2054 H           1 GYN       0.0312
     61 H24         9.1532   28.5571  -11.2997 H           1 GYN       0.0293
     62 H25        10.1697   27.8053  -12.5277 H           1 GYN       0.0293
     63 H26         8.4914   25.9619  -12.7392 H           1 GYN       0.0598
     64 H27        10.1672   26.3515  -10.3789 H           1 GYN       0.0295
     65 H28         9.6354   24.8474  -11.1343 H           1 GYN       0.0295
     66 H29         8.3896   24.5582   -9.2066 H           1 GYN       0.0345
     67 H30         7.6685   26.3603   -7.6805 H           1 GYN       0.0235
     68 H31         8.2828   27.5961   -8.7969 H           1 GYN       0.0235
     69 H32         9.4017   26.4755   -7.9993 H           1 GYN       0.0235
     70 H33         6.1340   26.1135   -9.6962 H           1 GYN       0.0747
     71 H34         4.9107   23.1165  -10.1584 H           1 GYN       0.0376
     72 H35         6.0192   23.7252   -8.9351 H           1 GYN       0.0376
     73 H36         6.5819   22.5122  -10.0823 H           1 GYN       0.0376
     74 H37         6.3336   25.0642  -12.8181 H           1 GYN       0.0245
     75 H38         4.8606   22.9304  -13.0674 H           1 GYN       0.0369
     76 H39         6.3144   22.1806  -12.4095 H           1 GYN       0.0369
     77 H40         6.0855   23.7543  -14.9959 H           1 GYN       0.0520
     78 H41         6.3638   22.0374  -14.8325 H           1 GYN       0.0520
     79 H42        10.0894   21.2708  -12.9162 H           1 GYN       0.0507
     80 H43        10.3508   22.9356  -12.4064 H           1 GYN       0.0507
     81 H44        10.9583   21.6481  -15.0792 H           1 GYN       0.0277
     82 H45        11.9414   22.7593  -14.1355 H           1 GYN       0.0277
     83 H46        10.4694   24.6006  -14.6171 H           1 GYN       0.0210
     84 H47        11.0041   23.9208  -16.1384 H           1 GYN       0.0210
@<TRIPOS>BOND
     1     1     2   2
     2     2     3   1
     3     2     6   1
     4     3     4   1
     5     4     5   1
     6     4     8   1
     7     5     6   1
     8     6     7   1
     9     8     9   2
    10     8    14   1
    11     9    10   1
    12     9    11   1
    13    11    12   1
    14    11    15   1
    15    12    13   1
    16    12    33   1
    17    12    37   1
    18    13    14   1
    19    15    16   2
    20    16    17   1
    21    16    18   1
    22    18    19   1
    23    18    20   1
    24    20    21   1
    25    21    22   1
    26    22    23   1
    27    22    26   1
    28    23    24   1
    29    24    25   1
    30    24    27   1
    31    26    27   1
    32    27    28   1
    33    28    29   1
    34    28    30   2
    35    30    31   1
    36    31    32   1
    37    32    33   1
    38    33    34   2
    39    34    35   1
    40    35    36   1
    41    36    37   1
    42     4    38   1
    43     5    39   1
    44     5    40   1
    45     6    41   1
    46     7    42   1
    47     7    43   1
    48     7    44   1
    49    10    45   1
    50    10    46   1
    51    10    47   1
    52    11    48   1
    53    13    49   1
    54    13    50   1
    55    14    51   1
    56    14    52   1
    57    15    53   1
    58    17    54   1
    59    17    55   1
    60    17    56   1
    61    18    57   1
    62    19    58   1
    63    20    59   1
    64    20    60   1
    65    21    61   1
    66    21    62   1
    67    22    63   1
    68    23    64   1
    69    23    65   1
    70    24    66   1
    71    25    67   1
    72    25    68   1
    73    25    69   1
    74    27    70   1
    75    29    71   1
    76    29    72   1
    77    29    73   1
    78    30    74   1
    79    31    75   1
    80    31    76   1
    81    32    77   1
    82    32    78   1
    83    35    79   1
    84    35    80   1
    85    36    81   1
    86    36    82   1
    87    37    83   1
    88    37    84   1
@<TRIPOS>SUBSTRUCTURE
     1  GYN      2

