@<TRIPOS>MOLECULE
2x00_ligand_025
    84    88
SMALL
GAST_HUCK
****
This file was generated by PARSER (from files_GN.cpp)

@<TRIPOS>ATOM
      1 O6         10.4140   19.9384  -15.1295 O.2         1 GYN      -0.3700
      2 C5         10.0893   20.5101  -13.9497 C.2         1 GYN       0.2385
      3 O1          8.8247   20.8577  -13.6361 O.3         1 GYN      -0.2655
      4 C2          8.6943   21.4829  -12.3609 C.3         1 GYN       0.1059
      5 C3         10.1488   21.4436  -11.8017 C.3         1 GYN       0.0041
      6 C4         11.0546   20.7965  -12.8843 C.3         1 GYN       0.0613
      7 C7         12.2440   21.6821  -13.3398 C.3         1 GYN      -0.0438
      8 C8          8.0694   22.8420  -12.3028 C.2         1 GYN      -0.0559
      9 C13         7.8099   23.6629  -13.3681 C.2         1 GYN      -0.0876
     10 C14         7.7627   23.1076  -14.7309 C.3         1 GYN      -0.0498
     11 C12         7.3988   25.0993  -13.1983 C.3         1 GYN      -0.0250
     12 C27         7.5938   25.7082  -11.7360 C.3         1 GYN       0.0148
     13 C10         7.0223   24.6164  -10.7694 C.3         1 GYN      -0.0494
     14 C9          7.7644   23.2670  -10.9230 C.3         1 GYN      -0.0395
     15 C15         8.0159   25.9577  -14.2360 C.2         1 GYN      -0.1023
     16 C16         7.4478   26.4933  -15.3501 C.2         1 GYN      -0.0548
     17 C19         6.0042   26.3873  -15.5983 C.3         1 GYN      -0.0377
     18 C17         8.3251   26.9533  -16.4560 C.3         1 GYN       0.0804
     19 O20         8.2518   25.9616  -17.4833 O.3         1 GYN      -0.3807
     20 C18         8.0620   28.3527  -17.0990 C.3         1 GYN      -0.0158
     21 C21         8.6486   29.5887  -16.3616 C.3         1 GYN      -0.0223
     22 C43         7.9175   29.9915  -15.0575 C.3         1 GYN       0.0623
     23 C47         8.4200   31.3125  -14.4480 C.3         1 GYN      -0.0197
     24 C48         7.2502   31.7161  -13.5343 C.3         1 GYN      -0.0066
     25 C49         7.1631   33.2421  -13.2758 C.3         1 GYN      -0.0582
     26 O43         6.5154   30.2137  -15.2795 O.3         1 GYN      -0.3622
     27 C37         6.0125   31.1005  -14.2569 C.3         1 GYN       0.0865
     28 C36         5.0728   30.4578  -13.3176 C.2         1 GYN      -0.0553
     29 C38         4.0298   31.2591  -12.6836 C.3         1 GYN      -0.0379
     30 C35         5.2880   29.1743  -12.9442 C.2         1 GYN      -0.1039
     31 C34         4.7024   28.4713  -11.8125 C.3         1 GYN      -0.0315
     32 C33         5.3460   27.0684  -11.5425 C.3         1 GYN       0.0100
     33 C32         6.8153   26.9724  -11.4975 C.2         1 GYN       0.0383
     34 N31         7.4012   28.0592  -11.1162 N.2         1 GYN      -0.2722
     35 C30         8.7386   28.3693  -10.9501 C.3         1 GYN       0.0432
     36 C46         9.6712   27.3492  -11.6317 C.3         1 GYN      -0.0375
     37 C28         9.1298   25.9224  -11.3730 C.3         1 GYN      -0.0530
     38 H1          8.0758   20.7830  -11.7835 H           1 GYN       0.0753
     39 H2         10.1797   20.8528  -10.8819 H           1 GYN       0.0338
     40 H3         10.5043   22.4441  -11.5594 H           1 GYN       0.0338
     41 H4         11.4577   19.8417  -12.5305 H           1 GYN       0.0553
     42 H5         12.7872   21.2101  -14.1594 H           1 GYN       0.0258
     43 H6         12.9399   21.8167  -12.5103 H           1 GYN       0.0258
     44 H7         11.9027   22.6636  -13.6676 H           1 GYN       0.0258
     45 H8          7.0852   22.2549  -14.7765 H           1 GYN       0.0329
     46 H9          8.7619   22.8186  -15.0528 H           1 GYN       0.0329
     47 H10         7.3917   23.7972  -15.4848 H           1 GYN       0.0329
     48 H11         6.3285   25.0499  -13.3786 H           1 GYN       0.0417
     49 H12         5.9653   24.4291  -10.9837 H           1 GYN       0.0226
     50 H13         7.0867   24.9440   -9.7282 H           1 GYN       0.0226
     51 H14         8.6928   23.3082  -10.3435 H           1 GYN       0.0362
     52 H15         7.1285   22.5119  -10.4519 H           1 GYN       0.0362
     53 H16         9.0060   25.9842  -14.1874 H           1 GYN       0.0252
     54 H17         5.6809   25.3459  -15.6130 H           1 GYN       0.0377
     55 H18         5.7011   26.8113  -16.5536 H           1 GYN       0.0377
     56 H19         5.4451   26.9034  -14.8217 H           1 GYN       0.0377
     57 H20         9.3774   26.9537  -16.1548 H           1 GYN       0.0742
     58 H21         7.4157   26.1287  -17.9620 H           1 GYN       0.2129
     59 H22         6.9990   28.5126  -17.2781 H           1 GYN       0.0312
     60 H23         8.5356   28.3452  -18.0863 H           1 GYN       0.0312
     61 H24         8.6037   30.4344  -17.0537 H           1 GYN       0.0293
     62 H25         9.7027   29.4062  -16.1379 H           1 GYN       0.0293
     63 H26         8.0564   29.1896  -14.3268 H           1 GYN       0.0598
     64 H27         8.5776   32.0621  -15.2296 H           1 GYN       0.0295
     65 H28         9.3490   31.1732  -13.8874 H           1 GYN       0.0295
     66 H29         7.4053   31.2262  -12.5651 H           1 GYN       0.0345
     67 H30         6.3295   33.4606  -12.6068 H           1 GYN       0.0235
     68 H31         7.0151   33.7875  -14.2100 H           1 GYN       0.0235
     69 H32         8.0838   33.5943  -12.8069 H           1 GYN       0.0235
     70 H33         5.4855   31.8784  -14.8179 H           1 GYN       0.0747
     71 H34         3.0563   30.7887  -12.8357 H           1 GYN       0.0376
     72 H35         3.9745   32.2700  -13.0923 H           1 GYN       0.0376
     73 H36         4.2182   31.3492  -11.6123 H           1 GYN       0.0376
     74 H37         5.9867   28.6796  -13.4324 H           1 GYN       0.0245
     75 H38         3.6300   28.3464  -11.9837 H           1 GYN       0.0369
     76 H39         4.8339   29.0760  -10.9117 H           1 GYN       0.0369
     77 H40         4.9614   26.4069  -12.3117 H           1 GYN       0.0520
     78 H41         4.9562   26.7063  -10.5878 H           1 GYN       0.0520
     79 H42         8.9346   28.4062   -9.8771 H           1 GYN       0.0507
     80 H43         8.9237   29.3589  -11.3706 H           1 GYN       0.0507
     81 H44        10.6823   27.4473  -11.2313 H           1 GYN       0.0277
     82 H45         9.7186   27.5635  -12.6992 H           1 GYN       0.0277
     83 H46         9.7652   25.2126  -11.9089 H           1 GYN       0.0210
     84 H47         9.2931   25.7386  -10.3058 H           1 GYN       0.0210
@<TRIPOS>BOND
     1     1     2   2
     2     2     3   1
     3     2     6   1
     4     3     4   1
     5     4     5   1
     6     4     8   1
     7     5     6   1
     8     6     7   1
     9     8     9   2
    10     8    14   1
    11     9    10   1
    12     9    11   1
    13    11    12   1
    14    11    15   1
    15    12    13   1
    16    12    33   1
    17    12    37   1
    18    13    14   1
    19    15    16   2
    20    16    17   1
    21    16    18   1
    22    18    19   1
    23    18    20   1
    24    20    21   1
    25    21    22   1
    26    22    23   1
    27    22    26   1
    28    23    24   1
    29    24    25   1
    30    24    27   1
    31    26    27   1
    32    27    28   1
    33    28    29   1
    34    28    30   2
    35    30    31   1
    36    31    32   1
    37    32    33   1
    38    33    34   2
    39    34    35   1
    40    35    36   1
    41    36    37   1
    42     4    38   1
    43     5    39   1
    44     5    40   1
    45     6    41   1
    46     7    42   1
    47     7    43   1
    48     7    44   1
    49    10    45   1
    50    10    46   1
    51    10    47   1
    52    11    48   1
    53    13    49   1
    54    13    50   1
    55    14    51   1
    56    14    52   1
    57    15    53   1
    58    17    54   1
    59    17    55   1
    60    17    56   1
    61    18    57   1
    62    19    58   1
    63    20    59   1
    64    20    60   1
    65    21    61   1
    66    21    62   1
    67    22    63   1
    68    23    64   1
    69    23    65   1
    70    24    66   1
    71    25    67   1
    72    25    68   1
    73    25    69   1
    74    27    70   1
    75    29    71   1
    76    29    72   1
    77    29    73   1
    78    30    74   1
    79    31    75   1
    80    31    76   1
    81    32    77   1
    82    32    78   1
    83    35    79   1
    84    35    80   1
    85    36    81   1
    86    36    82   1
    87    37    83   1
    88    37    84   1
@<TRIPOS>SUBSTRUCTURE
     1  GYN      2

