@<TRIPOS>MOLECULE
2x00_ligand_038
    84    88
SMALL
GAST_HUCK
****
This file was generated by PARSER (from files_GN.cpp)

@<TRIPOS>ATOM
      1 O6         -4.9794   32.2067    0.6221 O.2         1 GYN      -0.3700
      2 C5         -4.2143   32.0920   -0.4852 C.2         1 GYN       0.2385
      3 O1         -3.6978   30.9127   -0.8887 O.3         1 GYN      -0.2655
      4 C2         -2.9510   30.9870   -2.1080 C.3         1 GYN       0.1059
      5 C3         -3.0289   32.5017   -2.4739 C.3         1 GYN       0.0041
      6 C4         -3.9272   33.1906   -1.4035 C.3         1 GYN       0.0613
      7 C7         -3.2589   34.3968   -0.6925 C.3         1 GYN      -0.0438
      8 C8         -1.5810   30.4143   -2.0405 C.2         1 GYN      -0.0559
      9 C13        -0.8314   30.1286   -3.1478 C.2         1 GYN      -0.0876
     10 C14        -1.2168   30.7401   -4.4377 C.3         1 GYN      -0.0498
     11 C12         0.4612   29.3530   -3.0861 C.3         1 GYN      -0.0250
     12 C27         0.7882   28.6629   -1.6741 C.3         1 GYN       0.0148
     13 C10         0.4090   29.7294   -0.5927 C.3         1 GYN      -0.0494
     14 C9         -1.0648   30.1777   -0.6905 C.3         1 GYN      -0.0395
     15 C15         0.5352   28.4117   -4.2327 C.2         1 GYN      -0.1023
     16 C16         1.2508   28.5167   -5.3848 C.2         1 GYN      -0.0548
     17 C19         2.3219   29.5068   -5.5358 C.3         1 GYN      -0.0377
     18 C17         0.7762   27.8006   -6.5964 C.3         1 GYN       0.0804
     19 O20         0.2370   28.7844   -7.4860 O.3         1 GYN      -0.3807
     20 C18         1.7828   26.9036   -7.3891 C.3         1 GYN      -0.0158
     21 C21         2.0583   25.4860   -6.8107 C.3         1 GYN      -0.0223
     22 C43         2.8642   25.4743   -5.4910 C.3         1 GYN       0.0623
     23 C47         3.2640   24.0753   -4.9857 C.3         1 GYN      -0.0197
     24 C48         4.4003   24.4202   -4.0067 C.3         1 GYN      -0.0066
     25 C49         5.3786   23.2524   -3.7291 C.3         1 GYN      -0.0582
     26 O43         4.1076   26.1806   -5.6382 O.3         1 GYN      -0.3622
     27 C37         5.0513   25.6678   -4.6760 C.3         1 GYN       0.0865
     28 C36         5.4694   26.6975   -3.7086 C.2         1 GYN      -0.0553
     29 C38         6.8717   26.7881   -3.2996 C.3         1 GYN      -0.0379
     30 C35         4.5257   27.4888   -3.1528 C.2         1 GYN      -0.1039
     31 C34         4.6960   28.4381   -2.0632 C.3         1 GYN      -0.0315
     32 C33         3.3832   29.1727   -1.6403 C.3         1 GYN       0.0100
     33 C32         2.2185   28.3119   -1.3872 C.2         1 GYN       0.0383
     34 N31         2.5016   27.3223   -0.6004 N.2         1 GYN      -0.2722
     35 C30         1.7047   26.3592    0.0096 C.3         1 GYN       0.0432
     36 C46         0.1868   26.6134   -0.1504 C.3         1 GYN      -0.0375
     37 C28        -0.0751   27.3455   -1.4903 C.3         1 GYN      -0.0530
     38 H1         -3.5447   30.4039   -2.8206 H           1 GYN       0.0753
     39 H2         -3.4772   32.6359   -3.4623 H           1 GYN       0.0338
     40 H3         -2.0298   32.9471   -2.4997 H           1 GYN       0.0338
     41 H4         -4.8714   33.5136   -1.8546 H           1 GYN       0.0553
     42 H5         -3.9273   34.7930    0.0749 H           1 GYN       0.0258
     43 H6         -3.0596   35.1869   -1.4177 H           1 GYN       0.0258
     44 H7         -2.3168   34.1068   -0.2227 H           1 GYN       0.0258
     45 H8         -1.2718   31.8306   -4.3334 H           1 GYN       0.0329
     46 H9         -2.1864   30.3552   -4.7629 H           1 GYN       0.0329
     47 H10        -0.5167   30.5520   -5.2461 H           1 GYN       0.0329
     48 H11         1.1968   30.1358   -3.2342 H           1 GYN       0.0417
     49 H12         1.0299   30.6158   -0.7269 H           1 GYN       0.0226
     50 H13         0.5991   29.3758    0.4235 H           1 GYN       0.0226
     51 H14        -1.6864   29.4232   -0.2015 H           1 GYN       0.0362
     52 H15        -1.1547   31.1031   -0.1180 H           1 GYN       0.0362
     53 H16        -0.1802   27.7215   -4.2280 H           1 GYN       0.0252
     54 H17         1.9345   30.5177   -5.4095 H           1 GYN       0.0377
     55 H18         2.7936   29.4752   -6.5175 H           1 GYN       0.0377
     56 H19         3.1052   29.3392   -4.8023 H           1 GYN       0.0377
     57 H20        -0.0790   27.1551   -6.3724 H           1 GYN       0.0742
     58 H21         0.9867   29.3556   -7.7565 H           1 GYN       0.2129
     59 H22         2.7301   27.4217   -7.5422 H           1 GYN       0.0312
     60 H23         1.3585   26.7436   -8.3853 H           1 GYN       0.0312
     61 H24         2.6204   24.9235   -7.5609 H           1 GYN       0.0293
     62 H25         1.1086   24.9674   -6.6542 H           1 GYN       0.0293
     63 H26         2.2551   25.9563   -4.7196 H           1 GYN       0.0598
     64 H27         3.6305   23.4556   -5.8101 H           1 GYN       0.0295
     65 H28         2.4327   23.5664   -4.4889 H           1 GYN       0.0295
     66 H29         3.9401   24.6985   -3.0511 H           1 GYN       0.0345
     67 H30         6.1778   23.5853   -3.0647 H           1 GYN       0.0235
     68 H31         5.8224   22.8828   -4.6551 H           1 GYN       0.0235
     69 H32         4.8433   22.4360   -3.2440 H           1 GYN       0.0235
     70 H33         5.9037   25.3450   -5.2807 H           1 GYN       0.0747
     71 H34         7.2566   27.7900   -3.4941 H           1 GYN       0.0376
     72 H35         7.5107   26.0806   -3.8307 H           1 GYN       0.0376
     73 H36         6.9633   26.5740   -2.2334 H           1 GYN       0.0376
     74 H37         3.5983   27.3803   -3.4787 H           1 GYN       0.0245
     75 H38         5.4388   29.1876   -2.3466 H           1 GYN       0.0369
     76 H39         5.0820   27.8946   -1.1960 H           1 GYN       0.0369
     77 H40         3.1767   29.9194   -2.4007 H           1 GYN       0.0520
     78 H41         3.5932   29.7248   -0.7199 H           1 GYN       0.0520
     79 H42         1.9567   26.3259    1.0711 H           1 GYN       0.0507
     80 H43         1.9653   25.3936   -0.4291 H           1 GYN       0.0507
     81 H44        -0.1850   27.2137    0.6822 H           1 GYN       0.0277
     82 H45        -0.3493   25.6621   -0.1267 H           1 GYN       0.0277
     83 H46         0.1903   26.6292   -2.2711 H           1 GYN       0.0210
     84 H47        -1.1431   27.5456   -1.5881 H           1 GYN       0.0210
@<TRIPOS>BOND
     1     1     2   2
     2     2     3   1
     3     2     6   1
     4     3     4   1
     5     4     5   1
     6     4     8   1
     7     5     6   1
     8     6     7   1
     9     8     9   2
    10     8    14   1
    11     9    10   1
    12     9    11   1
    13    11    12   1
    14    11    15   1
    15    12    13   1
    16    12    33   1
    17    12    37   1
    18    13    14   1
    19    15    16   2
    20    16    17   1
    21    16    18   1
    22    18    19   1
    23    18    20   1
    24    20    21   1
    25    21    22   1
    26    22    23   1
    27    22    26   1
    28    23    24   1
    29    24    25   1
    30    24    27   1
    31    26    27   1
    32    27    28   1
    33    28    29   1
    34    28    30   2
    35    30    31   1
    36    31    32   1
    37    32    33   1
    38    33    34   2
    39    34    35   1
    40    35    36   1
    41    36    37   1
    42     4    38   1
    43     5    39   1
    44     5    40   1
    45     6    41   1
    46     7    42   1
    47     7    43   1
    48     7    44   1
    49    10    45   1
    50    10    46   1
    51    10    47   1
    52    11    48   1
    53    13    49   1
    54    13    50   1
    55    14    51   1
    56    14    52   1
    57    15    53   1
    58    17    54   1
    59    17    55   1
    60    17    56   1
    61    18    57   1
    62    19    58   1
    63    20    59   1
    64    20    60   1
    65    21    61   1
    66    21    62   1
    67    22    63   1
    68    23    64   1
    69    23    65   1
    70    24    66   1
    71    25    67   1
    72    25    68   1
    73    25    69   1
    74    27    70   1
    75    29    71   1
    76    29    72   1
    77    29    73   1
    78    30    74   1
    79    31    75   1
    80    31    76   1
    81    32    77   1
    82    32    78   1
    83    35    79   1
    84    35    80   1
    85    36    81   1
    86    36    82   1
    87    37    83   1
    88    37    84   1
@<TRIPOS>SUBSTRUCTURE
     1  GYN      2

