@<TRIPOS>MOLECULE
2x00_ligand_056
    84    88
SMALL
GAST_HUCK
****
This file was generated by PARSER (from files_GN.cpp)

@<TRIPOS>ATOM
      1 O6         -2.0287   37.0764  -12.4201 O.2         1 GYN      -0.3700
      2 C5         -2.5700   35.9005  -12.0419 C.2         1 GYN       0.2385
      3 O1         -3.0158   35.6686  -10.7893 O.3         1 GYN      -0.2655
      4 C2         -3.6347   34.3961  -10.6558 C.3         1 GYN       0.1059
      5 C3         -3.3701   33.6884  -12.0134 C.3         1 GYN       0.0041
      6 C4         -2.8680   34.8044  -12.9672 C.3         1 GYN       0.0613
      7 C7         -1.6720   34.3954  -13.8628 C.3         1 GYN      -0.0438
      8 C8         -3.2327   33.6182   -9.4556 C.2         1 GYN      -0.0559
      9 C13        -1.9509   33.2475   -9.1681 C.2         1 GYN      -0.0876
     10 C14        -0.8392   34.0635   -9.6881 C.3         1 GYN      -0.0498
     11 C12        -1.6258   32.1381   -8.2108 C.3         1 GYN      -0.0250
     12 C27        -2.8869   31.3316   -7.6314 C.3         1 GYN       0.0148
     13 C10        -3.9547   32.4369   -7.3069 C.3         1 GYN      -0.0494
     14 C9         -4.3412   33.2458   -8.5684 C.3         1 GYN      -0.0395
     15 C15        -0.5915   31.2688   -8.8256 C.2         1 GYN      -0.1023
     16 C16         0.7430   31.2011   -8.5718 C.2         1 GYN      -0.0548
     17 C19         1.3293   31.8362   -7.3844 C.3         1 GYN      -0.0377
     18 C17         1.6545   30.6837   -9.6265 C.3         1 GYN       0.0804
     19 O20         2.3423   31.8143  -10.1667 O.3         1 GYN      -0.3807
     20 C18         2.7307   29.6134   -9.2517 C.3         1 GYN      -0.0158
     21 C21         2.2634   28.1336   -9.1913 C.3         1 GYN      -0.0223
     22 C43         1.2907   27.8221   -8.0305 C.3         1 GYN       0.0623
     23 C47         0.9138   26.3366   -7.8859 C.3         1 GYN      -0.0197
     24 C48         0.3471   26.3168   -6.4542 C.3         1 GYN      -0.0066
     25 C49         0.3368   24.9170   -5.7941 C.3         1 GYN      -0.0582
     26 O43         1.8551   28.1836   -6.7604 O.3         1 GYN      -0.3622
     27 C37         1.2457   27.3704   -5.7398 C.3         1 GYN       0.0865
     28 C36         0.5314   28.1944   -4.7469 C.2         1 GYN      -0.0553
     29 C38         0.7317   27.9508   -3.3187 C.3         1 GYN      -0.0379
     30 C35        -0.3159   29.1551   -5.1797 C.2         1 GYN      -0.1039
     31 C34        -1.1676   30.0119   -4.3633 C.3         1 GYN      -0.0315
     32 C33        -2.0008   31.0704   -5.1581 C.3         1 GYN       0.0100
     33 C32        -2.7100   30.5758   -6.3456 C.2         1 GYN       0.0383
     34 N31        -3.4230   29.5230   -6.0993 N.2         1 GYN      -0.2722
     35 C30        -4.3206   28.8069   -6.8868 C.3         1 GYN       0.0432
     36 C46        -4.6557   29.4918   -8.2333 C.3         1 GYN      -0.0375
     37 C28        -3.4335   30.3079   -8.7139 C.3         1 GYN      -0.0530
     38 H1         -4.7060   34.6279  -10.6268 H           1 GYN       0.0753
     39 H2         -4.2808   33.2126  -12.4001 H           1 GYN       0.0338
     40 H3         -2.6139   32.9076  -11.9094 H           1 GYN       0.0338
     41 H4         -3.6865   35.1243  -13.6202 H           1 GYN       0.0553
     42 H5         -1.4128   35.2135  -14.5344 H           1 GYN       0.0258
     43 H6         -1.9424   33.5324  -14.4734 H           1 GYN       0.0258
     44 H7         -0.7944   34.1382  -13.2685 H           1 GYN       0.0258
     45 H8         -0.9725   35.1093   -9.4094 H           1 GYN       0.0329
     46 H9         -0.7733   33.9826  -10.7700 H           1 GYN       0.0329
     47 H10         0.1305   33.7828   -9.2940 H           1 GYN       0.0329
     48 H11        -1.1885   32.6801   -7.3791 H           1 GYN       0.0417
     49 H12        -3.5536   33.1407   -6.5668 H           1 GYN       0.0226
     50 H13        -4.8685   32.0189   -6.8727 H           1 GYN       0.0226
     51 H14        -5.0682   32.6644   -9.1402 H           1 GYN       0.0362
     52 H15        -4.8413   34.1604   -8.2364 H           1 GYN       0.0362
     53 H16        -0.8960   30.8205   -9.6580 H           1 GYN       0.0252
     54 H17         1.0781   32.8955   -7.3262 H           1 GYN       0.0377
     55 H18         2.4171   31.7861   -7.3738 H           1 GYN       0.0377
     56 H19         0.9705   31.3452   -6.4815 H           1 GYN       0.0377
     57 H20         1.0990   30.2635  -10.4709 H           1 GYN       0.0742
     58 H21         1.6496   32.3625  -10.5935 H           1 GYN       0.2129
     59 H22         3.2254   29.8704   -8.3140 H           1 GYN       0.0312
     60 H23         3.5079   29.6451  -10.0237 H           1 GYN       0.0312
     61 H24         3.1516   27.5079   -9.0744 H           1 GYN       0.0293
     62 H25         1.7937   27.8631  -10.1408 H           1 GYN       0.0293
     63 H26         0.3742   28.3982   -8.1964 H           1 GYN       0.0598
     64 H27         1.7995   25.6990   -7.9665 H           1 GYN       0.0295
     65 H28         0.1745   26.0319   -8.6332 H           1 GYN       0.0295
     66 H29        -0.6929   26.6675   -6.5013 H           1 GYN       0.0345
     67 H30        -0.0356   24.9871   -4.7701 H           1 GYN       0.0235
     68 H31         1.3395   24.4885   -5.7712 H           1 GYN       0.0235
     69 H32        -0.3197   24.2478   -6.3524 H           1 GYN       0.0235
     70 H33         2.0864   26.8508   -5.2718 H           1 GYN       0.0747
     71 H34         1.1119   28.8525   -2.8353 H           1 GYN       0.0376
     72 H35         1.4448   27.1492   -3.1221 H           1 GYN       0.0376
     73 H36        -0.2125   27.6667   -2.8501 H           1 GYN       0.0376
     74 H37        -0.3930   29.2833   -6.1589 H           1 GYN       0.0245
     75 H38        -0.5472   30.5504   -3.6409 H           1 GYN       0.0369
     76 H39        -1.8573   29.3746   -3.8026 H           1 GYN       0.0369
     77 H40        -1.3301   31.8887   -5.3987 H           1 GYN       0.0520
     78 H41        -2.7483   31.4846   -4.4748 H           1 GYN       0.0520
     79 H42        -5.2397   28.6598   -6.3163 H           1 GYN       0.0507
     80 H43        -3.8805   27.8240   -7.0734 H           1 GYN       0.0507
     81 H44        -5.5191   30.1482   -8.1147 H           1 GYN       0.0277
     82 H45        -4.9160   28.7380   -8.9800 H           1 GYN       0.0277
     83 H46        -2.6581   29.5730   -8.9404 H           1 GYN       0.0210
     84 H47        -3.6799   30.8033   -9.6548 H           1 GYN       0.0210
@<TRIPOS>BOND
     1     1     2   2
     2     2     3   1
     3     2     6   1
     4     3     4   1
     5     4     5   1
     6     4     8   1
     7     5     6   1
     8     6     7   1
     9     8     9   2
    10     8    14   1
    11     9    10   1
    12     9    11   1
    13    11    12   1
    14    11    15   1
    15    12    13   1
    16    12    33   1
    17    12    37   1
    18    13    14   1
    19    15    16   2
    20    16    17   1
    21    16    18   1
    22    18    19   1
    23    18    20   1
    24    20    21   1
    25    21    22   1
    26    22    23   1
    27    22    26   1
    28    23    24   1
    29    24    25   1
    30    24    27   1
    31    26    27   1
    32    27    28   1
    33    28    29   1
    34    28    30   2
    35    30    31   1
    36    31    32   1
    37    32    33   1
    38    33    34   2
    39    34    35   1
    40    35    36   1
    41    36    37   1
    42     4    38   1
    43     5    39   1
    44     5    40   1
    45     6    41   1
    46     7    42   1
    47     7    43   1
    48     7    44   1
    49    10    45   1
    50    10    46   1
    51    10    47   1
    52    11    48   1
    53    13    49   1
    54    13    50   1
    55    14    51   1
    56    14    52   1
    57    15    53   1
    58    17    54   1
    59    17    55   1
    60    17    56   1
    61    18    57   1
    62    19    58   1
    63    20    59   1
    64    20    60   1
    65    21    61   1
    66    21    62   1
    67    22    63   1
    68    23    64   1
    69    23    65   1
    70    24    66   1
    71    25    67   1
    72    25    68   1
    73    25    69   1
    74    27    70   1
    75    29    71   1
    76    29    72   1
    77    29    73   1
    78    30    74   1
    79    31    75   1
    80    31    76   1
    81    32    77   1
    82    32    78   1
    83    35    79   1
    84    35    80   1
    85    36    81   1
    86    36    82   1
    87    37    83   1
    88    37    84   1
@<TRIPOS>SUBSTRUCTURE
     1  GYN      2

