@<TRIPOS>MOLECULE
2x00_ligand_068
    84    88
SMALL
GAST_HUCK
****
This file was generated by PARSER (from files_GN.cpp)

@<TRIPOS>ATOM
      1 O6          4.2440   22.7791   -3.5348 O.2         1 GYN      -0.3700
      2 C5          4.2182   24.1304   -3.5613 C.2         1 GYN       0.2385
      3 O1          3.1923   24.8187   -4.0922 O.3         1 GYN      -0.2655
      4 C2          3.3242   26.2311   -3.9445 C.3         1 GYN       0.1059
      5 C3          4.6858   26.4200   -3.2133 C.3         1 GYN       0.0041
      6 C4          5.2277   24.9900   -2.9410 C.3         1 GYN       0.0613
      7 C7          6.6416   24.7258   -3.5121 C.3         1 GYN      -0.0438
      8 C8          3.2064   26.9545   -5.2367 C.2         1 GYN      -0.0559
      9 C13         2.5471   28.1434   -5.3853 C.2         1 GYN      -0.0876
     10 C14         2.1870   28.9178   -4.1823 C.3         1 GYN      -0.0498
     11 C12         2.3203   28.7798   -6.7288 C.3         1 GYN      -0.0250
     12 C27         2.6233   27.8422   -7.9863 C.3         1 GYN       0.0148
     13 C10         3.9824   27.1345   -7.6650 C.3         1 GYN      -0.0494
     14 C9          3.9061   26.3127   -6.3602 C.3         1 GYN      -0.0395
     15 C15         0.9731   29.3847   -6.8108 C.2         1 GYN      -0.1023
     16 C16         0.6026   30.6942   -6.8271 C.2         1 GYN      -0.0548
     17 C19         1.5993   31.7677   -6.7382 C.3         1 GYN      -0.0377
     18 C17        -0.8265   31.0400   -6.6575 C.3         1 GYN       0.0804
     19 O20        -0.9547   31.4722   -5.3007 O.3         1 GYN      -0.3807
     20 C18        -1.4681   32.1106   -7.6016 C.3         1 GYN      -0.0158
     21 C21        -1.8450   31.6523   -9.0382 C.3         1 GYN      -0.0223
     22 C43        -0.6547   31.4696  -10.0142 C.3         1 GYN       0.0623
     23 C47        -1.0689   31.1569  -11.4719 C.3         1 GYN      -0.0197
     24 C48        -0.4453   32.2878  -12.3157 C.3         1 GYN      -0.0066
     25 C49        -1.4675   33.4041  -12.6604 C.3         1 GYN      -0.0582
     26 O43         0.1477   32.6647  -10.0824 O.3         1 GYN      -0.3622
     27 C37         0.7114   32.7878  -11.4045 C.3         1 GYN       0.0865
     28 C36         2.0099   32.1082  -11.6335 C.2         1 GYN      -0.0553
     29 C38         2.6897   32.2984  -12.9130 C.3         1 GYN      -0.0379
     30 C35         2.5786   31.3553  -10.6675 C.2         1 GYN      -0.1039
     31 C34         3.7568   30.5054  -10.7738 C.3         1 GYN      -0.0315
     32 C33         3.9062   29.5249   -9.5620 C.3         1 GYN       0.0100
     33 C32         2.8047   28.5869   -9.2808 C.2         1 GYN       0.0383
     34 N31         2.0850   28.3098  -10.3118 N.2         1 GYN      -0.2722
     35 C30         0.9883   27.4803  -10.4754 C.3         1 GYN       0.0432
     36 C46         0.3799   27.0390   -9.1329 C.3         1 GYN      -0.0375
     37 C28         1.5234   26.7008   -8.1500 C.3         1 GYN      -0.0530
     38 H1          2.5202   26.4856   -3.2535 H           1 GYN       0.0753
     39 H2          4.5374   26.9511   -2.2679 H           1 GYN       0.0338
     40 H3          5.3916   27.0129   -3.8035 H           1 GYN       0.0338
     41 H4          5.2361   24.7953   -1.8652 H           1 GYN       0.0553
     42 H5          6.9608   23.7064   -3.2803 H           1 GYN       0.0258
     43 H6          7.3501   25.4220   -3.0599 H           1 GYN       0.0258
     44 H7          6.6605   24.8595   -4.5966 H           1 GYN       0.0258
     45 H8          1.8868   29.9401   -4.3926 H           1 GYN       0.0329
     46 H9          3.0369   28.9898   -3.5001 H           1 GYN       0.0329
     47 H10         1.3480   28.4469   -3.6680 H           1 GYN       0.0329
     48 H11         3.0572   29.5768   -6.7473 H           1 GYN       0.0417
     49 H12         4.7764   27.8726   -7.5347 H           1 GYN       0.0226
     50 H13         4.2869   26.4772   -8.4853 H           1 GYN       0.0226
     51 H14         3.4189   25.3593   -6.5803 H           1 GYN       0.0362
     52 H15         4.9364   26.0834   -6.0762 H           1 GYN       0.0362
     53 H16         0.2401   28.7245   -6.7108 H           1 GYN       0.0252
     54 H17         2.2794   31.7448   -7.5850 H           1 GYN       0.0377
     55 H18         2.1885   31.6629   -5.8300 H           1 GYN       0.0377
     56 H19         1.1574   32.7627   -6.6987 H           1 GYN       0.0377
     57 H20        -1.4616   30.1526   -6.7380 H           1 GYN       0.0742
     58 H21        -1.9174   31.5620   -5.1356 H           1 GYN       0.2129
     59 H22        -0.8524   33.0074   -7.6612 H           1 GYN       0.0312
     60 H23        -2.4056   32.4231   -7.1326 H           1 GYN       0.0312
     61 H24        -2.5143   32.4060   -9.4633 H           1 GYN       0.0293
     62 H25        -2.4042   30.7139   -8.9806 H           1 GYN       0.0293
     63 H26        -0.0482   30.6417   -9.6375 H           1 GYN       0.0598
     64 H27        -2.1513   31.0757  -11.6057 H           1 GYN       0.0295
     65 H28        -0.6256   30.2080  -11.7717 H           1 GYN       0.0295
     66 H29        -0.0771   31.8796  -13.2622 H           1 GYN       0.0345
     67 H30        -0.9765   34.1976  -13.2238 H           1 GYN       0.0235
     68 H31        -1.8995   33.8326  -11.7545 H           1 GYN       0.0235
     69 H32        -2.2729   32.9988  -13.2747 H           1 GYN       0.0235
     70 H33         0.8881   33.8552  -11.5663 H           1 GYN       0.0747
     71 H34         3.6904   32.7035  -12.7497 H           1 GYN       0.0376
     72 H35         2.1589   32.9952  -13.5648 H           1 GYN       0.0376
     73 H36         2.7752   31.3478  -13.4412 H           1 GYN       0.0376
     74 H37         2.1379   31.3427   -9.7898 H           1 GYN       0.0245
     75 H38         4.6437   31.1415  -10.8289 H           1 GYN       0.0369
     76 H39         3.7107   29.9147  -11.6923 H           1 GYN       0.0369
     77 H40         4.0731   30.1473   -8.6894 H           1 GYN       0.0520
     78 H41         4.8165   28.9437   -9.7232 H           1 GYN       0.0520
     79 H42         1.2992   26.6073  -11.0498 H           1 GYN       0.0507
     80 H43         0.2373   28.0129  -11.0546 H           1 GYN       0.0507
     81 H44        -0.2426   26.1585   -9.2899 H           1 GYN       0.0277
     82 H45        -0.2583   27.8326   -8.7463 H           1 GYN       0.0277
     83 H46         1.0829   26.4341   -7.1860 H           1 GYN       0.0210
     84 H47         1.9815   25.7860   -8.5408 H           1 GYN       0.0210
@<TRIPOS>BOND
     1     1     2   2
     2     2     3   1
     3     2     6   1
     4     3     4   1
     5     4     5   1
     6     4     8   1
     7     5     6   1
     8     6     7   1
     9     8     9   2
    10     8    14   1
    11     9    10   1
    12     9    11   1
    13    11    12   1
    14    11    15   1
    15    12    13   1
    16    12    33   1
    17    12    37   1
    18    13    14   1
    19    15    16   2
    20    16    17   1
    21    16    18   1
    22    18    19   1
    23    18    20   1
    24    20    21   1
    25    21    22   1
    26    22    23   1
    27    22    26   1
    28    23    24   1
    29    24    25   1
    30    24    27   1
    31    26    27   1
    32    27    28   1
    33    28    29   1
    34    28    30   2
    35    30    31   1
    36    31    32   1
    37    32    33   1
    38    33    34   2
    39    34    35   1
    40    35    36   1
    41    36    37   1
    42     4    38   1
    43     5    39   1
    44     5    40   1
    45     6    41   1
    46     7    42   1
    47     7    43   1
    48     7    44   1
    49    10    45   1
    50    10    46   1
    51    10    47   1
    52    11    48   1
    53    13    49   1
    54    13    50   1
    55    14    51   1
    56    14    52   1
    57    15    53   1
    58    17    54   1
    59    17    55   1
    60    17    56   1
    61    18    57   1
    62    19    58   1
    63    20    59   1
    64    20    60   1
    65    21    61   1
    66    21    62   1
    67    22    63   1
    68    23    64   1
    69    23    65   1
    70    24    66   1
    71    25    67   1
    72    25    68   1
    73    25    69   1
    74    27    70   1
    75    29    71   1
    76    29    72   1
    77    29    73   1
    78    30    74   1
    79    31    75   1
    80    31    76   1
    81    32    77   1
    82    32    78   1
    83    35    79   1
    84    35    80   1
    85    36    81   1
    86    36    82   1
    87    37    83   1
    88    37    84   1
@<TRIPOS>SUBSTRUCTURE
     1  GYN      2

