@<TRIPOS>MOLECULE
2x00_ligand_085
    84    88
SMALL
GAST_HUCK
****
This file was generated by PARSER (from files_GN.cpp)

@<TRIPOS>ATOM
      1 O6          5.3960   25.6878  -20.5213 O.2         1 GYN      -0.3700
      2 C5          6.1304   26.6928  -19.9958 C.2         1 GYN       0.2385
      3 O1          7.2142   26.4728  -19.2329 O.3         1 GYN      -0.2655
      4 C2          7.8788   27.6487  -18.7745 C.3         1 GYN       0.1059
      5 C3          7.0605   28.7746  -19.5034 C.3         1 GYN       0.0041
      6 C4          5.8337   28.1047  -20.1837 C.3         1 GYN       0.0613
      7 C7          4.4574   28.4933  -19.5850 C.3         1 GYN      -0.0438
      8 C8          8.0475   27.6137  -17.2920 C.2         1 GYN      -0.0559
      9 C13         8.4850   26.5006  -16.6241 C.2         1 GYN      -0.0876
     10 C14         9.1048   25.3937  -17.3828 C.3         1 GYN      -0.0498
     11 C12         8.4762   26.3785  -15.1238 C.3         1 GYN      -0.0250
     12 C27         7.8078   27.6076  -14.3440 C.3         1 GYN       0.0148
     13 C10         8.3387   28.8802  -15.0936 C.3         1 GYN      -0.0494
     14 C9          7.9059   28.8924  -16.5798 C.3         1 GYN      -0.0395
     15 C15         7.8979   25.0672  -14.7475 C.2         1 GYN      -0.1023
     16 C16         8.4933   23.9645  -14.2240 C.2         1 GYN      -0.0548
     17 C19         9.9062   23.9622  -13.8354 C.3         1 GYN      -0.0377
     18 C17         7.7525   22.6803  -14.2053 C.3         1 GYN       0.0804
     19 O20         8.3796   21.7963  -15.1388 O.3         1 GYN      -0.3807
     20 C18         7.6003   21.9478  -12.8348 C.3         1 GYN      -0.0158
     21 C21         6.5031   22.4996  -11.8712 C.3         1 GYN      -0.0223
     22 C43         6.8963   23.7905  -11.1213 C.3         1 GYN       0.0623
     23 C47         5.8784   24.2973  -10.0714 C.3         1 GYN      -0.0197
     24 C48         6.6779   24.3604   -8.7491 C.3         1 GYN      -0.0066
     25 C49         6.3097   23.1974   -7.7860 C.3         1 GYN      -0.0582
     26 O43         8.1205   23.5262  -10.4182 O.3         1 GYN      -0.3622
     27 C37         8.1610   24.3097   -9.2213 C.3         1 GYN       0.0865
     28 C36         8.8317   25.6179   -9.3439 C.2         1 GYN      -0.0553
     29 C38         9.1738   26.3249   -8.1153 C.3         1 GYN      -0.0379
     30 C35         9.1570   26.1304  -10.5546 C.2         1 GYN      -0.1039
     31 C34         9.7045   27.4396  -10.8663 C.3         1 GYN      -0.0315
     32 C33         9.5570   27.8259  -12.3757 C.3         1 GYN       0.0100
     33 C32         8.1812   27.8105  -12.9043 C.2         1 GYN       0.0383
     34 N31         7.3355   28.3491  -12.0892 N.2         1 GYN      -0.2722
     35 C30         6.0030   28.7263  -12.2296 C.3         1 GYN       0.0432
     36 C46         5.4980   28.6556  -13.6877 C.3         1 GYN      -0.0375
     37 C28         6.2229   27.5041  -14.4186 C.3         1 GYN      -0.0530
     38 H1          8.8784   27.6403  -19.2099 H           1 GYN       0.0753
     39 H2          7.6961   29.2284  -20.2725 H           1 GYN       0.0338
     40 H3          6.7402   29.5844  -18.8343 H           1 GYN       0.0338
     41 H4          5.8426   28.3218  -21.2510 H           1 GYN       0.0553
     42 H5          3.6637   27.9576  -20.1139 H           1 GYN       0.0258
     43 H6          4.2933   29.5656  -19.7107 H           1 GYN       0.0258
     44 H7          4.4036   28.2474  -18.5187 H           1 GYN       0.0258
     45 H8          9.8185   25.7683  -18.1178 H           1 GYN       0.0329
     46 H9          8.3351   24.8058  -17.8841 H           1 GYN       0.0329
     47 H10         9.6646   24.7074  -16.7539 H           1 GYN       0.0329
     48 H11         9.5341   26.3814  -14.8729 H           1 GYN       0.0417
     49 H12         9.4348   28.8993  -15.0631 H           1 GYN       0.0226
     50 H13         7.9988   29.8091  -14.6224 H           1 GYN       0.0226
     51 H14         6.8639   29.2270  -16.6413 H           1 GYN       0.0362
     52 H15         8.5198   29.6488  -17.0784 H           1 GYN       0.0362
     53 H16         6.9582   24.9510  -15.0485 H           1 GYN       0.0252
     54 H17        10.5436   24.1745  -14.6913 H           1 GYN       0.0377
     55 H18        10.2336   23.0053  -13.4313 H           1 GYN       0.0377
     56 H19        10.0970   24.7116  -13.0756 H           1 GYN       0.0377
     57 H20         6.7364   22.7953  -14.5960 H           1 GYN       0.0742
     58 H21         9.2289   21.5245  -14.7312 H           1 GYN       0.2129
     59 H22         8.5568   21.8927  -12.3144 H           1 GYN       0.0312
     60 H23         7.3319   20.9117  -13.0533 H           1 GYN       0.0312
     61 H24         6.2969   21.7339  -11.1168 H           1 GYN       0.0293
     62 H25         5.5773   22.6798  -12.4232 H           1 GYN       0.0293
     63 H26         7.0414   24.5736  -11.8671 H           1 GYN       0.0598
     64 H27         5.0007   23.6477   -9.9985 H           1 GYN       0.0295
     65 H28         5.5307   25.2982  -10.3443 H           1 GYN       0.0295
     66 H29         6.4594   25.2988   -8.2288 H           1 GYN       0.0345
     67 H30         6.9115   23.2550   -6.8769 H           1 GYN       0.0235
     68 H31         6.4814   22.2296   -8.2615 H           1 GYN       0.0235
     69 H32         5.2574   23.2630   -7.5025 H           1 GYN       0.0235
     70 H33         8.7628   23.7228   -8.5273 H           1 GYN       0.0747
     71 H34        10.2553   26.4659   -8.0595 H           1 GYN       0.0376
     72 H35         8.8682   25.7820   -7.2174 H           1 GYN       0.0376
     73 H36         8.6775   27.2936   -8.0980 H           1 GYN       0.0376
     74 H37         8.9651   25.5751  -11.3398 H           1 GYN       0.0245
     75 H38        10.7613   27.4546  -10.5923 H           1 GYN       0.0369
     76 H39         9.1951   28.2024  -10.2725 H           1 GYN       0.0369
     77 H40        10.2129   27.1719  -12.9446 H           1 GYN       0.0520
     78 H41         9.9477   28.8394  -12.4974 H           1 GYN       0.0520
     79 H42         5.8887   29.7461  -11.8569 H           1 GYN       0.0507
     80 H43         5.4029   28.0663  -11.5996 H           1 GYN       0.0507
     81 H44         5.6839   29.6016  -14.2002 H           1 GYN       0.0277
     82 H45         4.4202   28.4813  -13.6915 H           1 GYN       0.0277
     83 H46         5.8970   26.5915  -13.9159 H           1 GYN       0.0210
     84 H47         5.8611   27.4397  -15.4457 H           1 GYN       0.0210
@<TRIPOS>BOND
     1     1     2   2
     2     2     3   1
     3     2     6   1
     4     3     4   1
     5     4     5   1
     6     4     8   1
     7     5     6   1
     8     6     7   1
     9     8     9   2
    10     8    14   1
    11     9    10   1
    12     9    11   1
    13    11    12   1
    14    11    15   1
    15    12    13   1
    16    12    33   1
    17    12    37   1
    18    13    14   1
    19    15    16   2
    20    16    17   1
    21    16    18   1
    22    18    19   1
    23    18    20   1
    24    20    21   1
    25    21    22   1
    26    22    23   1
    27    22    26   1
    28    23    24   1
    29    24    25   1
    30    24    27   1
    31    26    27   1
    32    27    28   1
    33    28    29   1
    34    28    30   2
    35    30    31   1
    36    31    32   1
    37    32    33   1
    38    33    34   2
    39    34    35   1
    40    35    36   1
    41    36    37   1
    42     4    38   1
    43     5    39   1
    44     5    40   1
    45     6    41   1
    46     7    42   1
    47     7    43   1
    48     7    44   1
    49    10    45   1
    50    10    46   1
    51    10    47   1
    52    11    48   1
    53    13    49   1
    54    13    50   1
    55    14    51   1
    56    14    52   1
    57    15    53   1
    58    17    54   1
    59    17    55   1
    60    17    56   1
    61    18    57   1
    62    19    58   1
    63    20    59   1
    64    20    60   1
    65    21    61   1
    66    21    62   1
    67    22    63   1
    68    23    64   1
    69    23    65   1
    70    24    66   1
    71    25    67   1
    72    25    68   1
    73    25    69   1
    74    27    70   1
    75    29    71   1
    76    29    72   1
    77    29    73   1
    78    30    74   1
    79    31    75   1
    80    31    76   1
    81    32    77   1
    82    32    78   1
    83    35    79   1
    84    35    80   1
    85    36    81   1
    86    36    82   1
    87    37    83   1
    88    37    84   1
@<TRIPOS>SUBSTRUCTURE
     1  GYN      2

