@<TRIPOS>MOLECULE
2x00_ligand_092
    84    88
SMALL
GAST_HUCK
****
This file was generated by PARSER (from files_GN.cpp)

@<TRIPOS>ATOM
      1 O6          1.8892   23.7798    3.0396 O.2         1 GYN      -0.3700
      2 C5          1.4816   24.5559    2.0121 C.2         1 GYN       0.2385
      3 O1          1.9744   25.7898    1.7950 O.3         1 GYN      -0.2655
      4 C2          1.4165   26.4283    0.6518 C.3         1 GYN       0.1059
      5 C3          0.3908   25.3938    0.1009 C.3         1 GYN       0.0041
      6 C4          0.4988   24.1404    1.0096 C.3         1 GYN       0.0613
      7 C7         -0.8504   23.7082    1.6370 C.3         1 GYN      -0.0438
      8 C8          0.8394   27.7941    0.8068 C.2         1 GYN      -0.0559
      9 C13         0.1129   28.2405    1.8791 C.2         1 GYN      -0.0876
     10 C14         0.2939   27.5905    3.1875 C.3         1 GYN      -0.0498
     11 C12        -0.7500   29.4758    1.8365 C.3         1 GYN      -0.0250
     12 C27        -0.9465   30.1305    0.3846 C.3         1 GYN       0.0148
     13 C10         0.4708   30.0751   -0.2703 C.3         1 GYN      -0.0494
     14 C9          1.0266   28.6400   -0.3771 C.3         1 GYN      -0.0395
     15 C15        -2.0336   29.2062    2.5278 C.2         1 GYN      -0.1023
     16 C16        -2.4838   29.6201    3.7425 C.2         1 GYN      -0.0548
     17 C19        -1.7470   30.6141    4.5264 C.3         1 GYN      -0.0377
     18 C17        -3.6096   28.8965    4.3855 C.3         1 GYN       0.0804
     19 O20        -3.0783   28.2624    5.5551 O.3         1 GYN      -0.3807
     20 C18        -4.8752   29.6999    4.8113 C.3         1 GYN      -0.0158
     21 C21        -5.8314   30.1828    3.6793 C.3         1 GYN      -0.0223
     22 C43        -5.2951   31.3704    2.8447 C.3         1 GYN       0.0623
     23 C47        -6.2898   31.9747    1.8259 C.3         1 GYN      -0.0197
     24 C48        -6.4004   33.4672    2.2176 C.3         1 GYN      -0.0066
     25 C49        -7.7197   33.7826    2.9758 C.3         1 GYN      -0.0582
     26 O43        -4.9202   32.4400    3.7353 O.3         1 GYN      -0.3622
     27 C37        -5.1386   33.7090    3.0961 C.3         1 GYN       0.0865
     28 C36        -3.9765   34.2724    2.3758 C.2         1 GYN      -0.0553
     29 C38        -4.0339   35.6701    1.9496 C.3         1 GYN      -0.0379
     30 C35        -2.8767   33.5259    2.1386 C.2         1 GYN      -0.1039
     31 C34        -1.6724   33.8985    1.4171 C.3         1 GYN      -0.0315
     32 C33        -0.7537   32.6763    1.0868 C.3         1 GYN       0.0100
     33 C32        -1.3735   31.5722    0.3321 C.2         1 GYN       0.0383
     34 N31        -2.1055   32.0021   -0.6438 N.2         1 GYN      -0.2722
     35 C30        -2.7191   31.3550   -1.7124 C.3         1 GYN       0.0432
     36 C46        -2.2661   29.8858   -1.8781 C.3         1 GYN      -0.0375
     37 C28        -1.9809   29.2917   -0.4790 C.3         1 GYN      -0.0530
     38 H1          2.2653   26.4690   -0.0451 H           1 GYN       0.0753
     39 H2          0.6316   25.1337   -0.9324 H           1 GYN       0.0338
     40 H3         -0.6258   25.7943    0.1034 H           1 GYN       0.0338
     41 H4          0.9197   23.3003    0.4511 H           1 GYN       0.0553
     42 H5         -0.7075   22.8543    2.3014 H           1 GYN       0.0258
     43 H6         -1.5540   23.4188    0.8550 H           1 GYN       0.0258
     44 H7         -1.2869   24.5260    2.2102 H           1 GYN       0.0258
     45 H8          1.3544   27.5271    3.4374 H           1 GYN       0.0329
     46 H9         -0.1500   26.5927    3.1650 H           1 GYN       0.0329
     47 H10        -0.1653   28.1202    4.0184 H           1 GYN       0.0329
     48 H11        -0.1775   30.1830    2.4314 H           1 GYN       0.0417
     49 H12         1.1728   30.6442    0.3444 H           1 GYN       0.0226
     50 H13         0.4752   30.5201   -1.2657 H           1 GYN       0.0226
     51 H14         0.5750   28.1519   -1.2453 H           1 GYN       0.0362
     52 H15         2.0970   28.7295   -0.5906 H           1 GYN       0.0362
     53 H16        -2.5696   28.5025    2.0916 H           1 GYN       0.0252
     54 H17        -0.7729   30.2273    4.8249 H           1 GYN       0.0377
     55 H18        -2.2727   30.9026    5.4343 H           1 GYN       0.0377
     56 H19        -1.5881   31.5192    3.9512 H           1 GYN       0.0377
     57 H20        -3.9785   28.0823    3.7568 H           1 GYN       0.0742
     58 H21        -3.7591   27.6151    5.8464 H           1 GYN       0.2129
     59 H22        -4.5848   30.5444    5.4402 H           1 GYN       0.0312
     60 H23        -5.4709   29.0376    5.4467 H           1 GYN       0.0312
     61 H24        -6.7672   30.5029    4.1462 H           1 GYN       0.0293
     62 H25        -6.0626   29.3479    3.0148 H           1 GYN       0.0293
     63 H26        -4.4227   31.0122    2.2976 H           1 GYN       0.0598
     64 H27        -7.2581   31.4693    1.8397 H           1 GYN       0.0295
     65 H28        -5.8828   31.8865    0.8154 H           1 GYN       0.0295
     66 H29        -6.3834   34.0877    1.3149 H           1 GYN       0.0345
     67 H30        -7.7592   34.8433    3.2306 H           1 GYN       0.0235
     68 H31        -7.7886   33.1977    3.8952 H           1 GYN       0.0235
     69 H32        -8.5812   33.5494    2.3469 H           1 GYN       0.0235
     70 H33        -5.3636   34.4019    3.9116 H           1 GYN       0.0747
     71 H34        -3.2094   36.2314    2.3947 H           1 GYN       0.0376
     72 H35        -4.9642   36.1572    2.2524 H           1 GYN       0.0376
     73 H36        -3.9654   35.7364    0.8625 H           1 GYN       0.0376
     74 H37        -2.8817   32.6019    2.4671 H           1 GYN       0.0245
     75 H38        -1.1108   34.6172    2.0208 H           1 GYN       0.0369
     76 H39        -1.9418   34.3922    0.4794 H           1 GYN       0.0369
     77 H40        -0.3197   32.3280    2.0199 H           1 GYN       0.0520
     78 H41         0.0730   33.0617    0.4917 H           1 GYN       0.0520
     79 H42        -2.4986   31.9078   -2.6283 H           1 GYN       0.0507
     80 H43        -3.7987   31.3942   -1.5464 H           1 GYN       0.0507
     81 H44        -1.3729   29.8342   -2.5029 H           1 GYN       0.0277
     82 H45        -3.0517   29.3103   -2.3779 H           1 GYN       0.0277
     83 H46        -2.9442   29.2971    0.0265 H           1 GYN       0.0210
     84 H47        -1.6822   28.2484   -0.5822 H           1 GYN       0.0210
@<TRIPOS>BOND
     1     1     2   2
     2     2     3   1
     3     2     6   1
     4     3     4   1
     5     4     5   1
     6     4     8   1
     7     5     6   1
     8     6     7   1
     9     8     9   2
    10     8    14   1
    11     9    10   1
    12     9    11   1
    13    11    12   1
    14    11    15   1
    15    12    13   1
    16    12    33   1
    17    12    37   1
    18    13    14   1
    19    15    16   2
    20    16    17   1
    21    16    18   1
    22    18    19   1
    23    18    20   1
    24    20    21   1
    25    21    22   1
    26    22    23   1
    27    22    26   1
    28    23    24   1
    29    24    25   1
    30    24    27   1
    31    26    27   1
    32    27    28   1
    33    28    29   1
    34    28    30   2
    35    30    31   1
    36    31    32   1
    37    32    33   1
    38    33    34   2
    39    34    35   1
    40    35    36   1
    41    36    37   1
    42     4    38   1
    43     5    39   1
    44     5    40   1
    45     6    41   1
    46     7    42   1
    47     7    43   1
    48     7    44   1
    49    10    45   1
    50    10    46   1
    51    10    47   1
    52    11    48   1
    53    13    49   1
    54    13    50   1
    55    14    51   1
    56    14    52   1
    57    15    53   1
    58    17    54   1
    59    17    55   1
    60    17    56   1
    61    18    57   1
    62    19    58   1
    63    20    59   1
    64    20    60   1
    65    21    61   1
    66    21    62   1
    67    22    63   1
    68    23    64   1
    69    23    65   1
    70    24    66   1
    71    25    67   1
    72    25    68   1
    73    25    69   1
    74    27    70   1
    75    29    71   1
    76    29    72   1
    77    29    73   1
    78    30    74   1
    79    31    75   1
    80    31    76   1
    81    32    77   1
    82    32    78   1
    83    35    79   1
    84    35    80   1
    85    36    81   1
    86    36    82   1
    87    37    83   1
    88    37    84   1
@<TRIPOS>SUBSTRUCTURE
     1  GYN      2

