@<TRIPOS>MOLECULE
2x00_ligand_028
    84    88
SMALL
GAST_HUCK
****
This file was generated by PARSER (from files_GN.cpp)

@<TRIPOS>ATOM
      1 O6         -2.7555   29.3205    3.2712 O.2         1 GYN      -0.3700
      2 C5         -1.9958   29.7858    2.2563 C.2         1 GYN       0.2385
      3 O1         -2.2476   29.4693    0.9744 O.3         1 GYN      -0.2655
      4 C2         -1.3815   30.1342    0.0607 C.3         1 GYN       0.1059
      5 C3         -0.3661   30.8937    0.9626 C.3         1 GYN       0.0041
      6 C4         -0.8873   30.7320    2.4193 C.3         1 GYN       0.0613
      7 C7          0.1744   30.2390    3.4364 C.3         1 GYN      -0.0438
      8 C8         -0.8434   29.2395   -0.9993 C.2         1 GYN      -0.0559
      9 C13         0.0367   28.2075   -0.8060 C.2         1 GYN      -0.0876
     10 C14         0.2584   27.6602    0.5481 C.3         1 GYN      -0.0498
     11 C12         0.7236   27.5012   -1.9446 C.3         1 GYN      -0.0250
     12 C27         0.5258   28.1543   -3.3952 C.3         1 GYN       0.0148
     13 C10        -0.9948   28.5252   -3.4553 C.3         1 GYN      -0.0494
     14 C9         -1.3980   29.5123   -2.3404 C.3         1 GYN      -0.0395
     15 C15         2.1556   27.2783   -1.6225 C.2         1 GYN      -0.1023
     16 C16         2.8265   26.1275   -1.3586 C.2         1 GYN      -0.0548
     17 C19         2.1695   24.8198   -1.4162 C.3         1 GYN      -0.0377
     18 C17         4.2270   26.1918   -0.8814 C.3         1 GYN       0.0804
     19 O20         4.2371   25.7909    0.4903 O.3         1 GYN      -0.3807
     20 C18         5.2893   25.3631   -1.6815 C.3         1 GYN      -0.0158
     21 C21         5.8521   26.0226   -2.9688 C.3         1 GYN      -0.0223
     22 C43         4.9287   25.9695   -4.2171 C.3         1 GYN       0.0623
     23 C47         5.5131   26.7513   -5.4156 C.3         1 GYN      -0.0197
     24 C48         5.6366   25.6987   -6.5322 C.3         1 GYN      -0.0066
     25 C49         7.0615   25.0792   -6.6240 C.3         1 GYN      -0.0582
     26 O43         4.7512   24.6175   -4.6851 O.3         1 GYN      -0.3622
     27 C37         4.5605   24.6508   -6.1178 C.3         1 GYN       0.0865
     28 C36         3.1641   24.9120   -6.5494 C.2         1 GYN      -0.0553
     29 C38         2.8989   25.2798   -7.9435 C.3         1 GYN      -0.0379
     30 C35         2.1428   24.6964   -5.6872 C.2         1 GYN      -0.1039
     31 C34         0.7295   25.0018   -5.8647 C.3         1 GYN      -0.0315
     32 C33         0.1803   25.9254   -4.7351 C.3         1 GYN       0.0100
     33 C32         0.7904   27.2579   -4.5695 C.2         1 GYN       0.0383
     34 N31         1.2685   27.7496   -5.6642 N.2         1 GYN      -0.2722
     35 C30         1.7053   29.0296   -6.0012 C.3         1 GYN       0.0432
     36 C46         1.3541   30.0980   -4.9391 C.3         1 GYN      -0.0375
     37 C28         1.4366   29.4488   -3.5414 C.3         1 GYN      -0.0530
     38 H1         -2.0176   30.9101   -0.3872 H           1 GYN       0.0753
     39 H2         -0.3324   31.9539    0.6885 H           1 GYN       0.0338
     40 H3          0.6451   30.5009    0.8522 H           1 GYN       0.0338
     41 H4         -1.2999   31.6841    2.7694 H           1 GYN       0.0553
     42 H5         -0.2422   30.2561    4.4470 H           1 GYN       0.0258
     43 H6          1.0395   30.9042    3.4092 H           1 GYN       0.0258
     44 H7          0.4973   29.2181    3.1944 H           1 GYN       0.0258
     45 H8          0.6602   26.6489    0.5187 H           1 GYN       0.0329
     46 H9         -0.6626   27.5850    1.1163 H           1 GYN       0.0329
     47 H10         0.9743   28.2829    1.0941 H           1 GYN       0.0329
     48 H11         0.2207   26.5359   -1.9601 H           1 GYN       0.0417
     49 H12        -1.6018   27.6244   -3.3206 H           1 GYN       0.0226
     50 H13        -1.2692   28.9513   -4.4232 H           1 GYN       0.0226
     51 H14        -1.1088   30.5236   -2.6418 H           1 GYN       0.0362
     52 H15        -2.4931   29.4873   -2.2786 H           1 GYN       0.0362
     53 H16         2.6599   28.1200   -1.4588 H           1 GYN       0.0252
     54 H17         1.2587   24.8041   -0.8164 H           1 GYN       0.0377
     55 H18         2.7975   24.0116   -1.0376 H           1 GYN       0.0377
     56 H19         1.9201   24.5763   -2.4456 H           1 GYN       0.0377
     57 H20         4.5973   27.2198   -0.8563 H           1 GYN       0.0742
     58 H21         4.1171   24.8195    0.4863 H           1 GYN       0.2129
     59 H22         4.9145   24.3689   -1.9287 H           1 GYN       0.0312
     60 H23         6.1465   25.2148   -1.0164 H           1 GYN       0.0312
     61 H24         6.7879   25.5130   -3.2259 H           1 GYN       0.0293
     62 H25         6.1030   27.0640   -2.7456 H           1 GYN       0.0293
     63 H26         3.9515   26.3891   -3.9565 H           1 GYN       0.0598
     64 H27         6.4759   27.2165   -5.1888 H           1 GYN       0.0295
     65 H28         4.8159   27.5371   -5.7191 H           1 GYN       0.0295
     66 H29         5.4330   26.1726   -7.4932 H           1 GYN       0.0345
     67 H30         7.0921   24.3309   -7.4177 H           1 GYN       0.0235
     68 H31         7.3475   24.6030   -5.6852 H           1 GYN       0.0235
     69 H32         7.7933   25.8545   -6.8595 H           1 GYN       0.0235
     70 H33         4.8249   23.6673   -6.5150 H           1 GYN       0.0747
     71 H34         2.0954   24.6751   -8.3687 H           1 GYN       0.0376
     72 H35         3.7634   25.1257   -8.5917 H           1 GYN       0.0376
     73 H36         2.6113   26.3324   -7.9954 H           1 GYN       0.0376
     74 H37         2.3578   24.2751   -4.8165 H           1 GYN       0.0245
     75 H38         0.1770   24.0588   -5.8402 H           1 GYN       0.0369
     76 H39         0.5099   25.4708   -6.8245 H           1 GYN       0.0369
     77 H40         0.2458   25.3605   -3.8100 H           1 GYN       0.0520
     78 H41        -0.8847   26.0677   -4.9358 H           1 GYN       0.0520
     79 H42         1.2545   29.3077   -6.9560 H           1 GYN       0.0507
     80 H43         2.7888   28.9901   -6.1410 H           1 GYN       0.0507
     81 H44         0.3496   30.4914   -5.1186 H           1 GYN       0.0277
     82 H45         2.0555   30.9344   -5.0098 H           1 GYN       0.0277
     83 H46         2.4899   29.1874   -3.4148 H           1 GYN       0.0210
     84 H47         1.2086   30.1967   -2.7838 H           1 GYN       0.0210
@<TRIPOS>BOND
     1     1     2   2
     2     2     3   1
     3     2     6   1
     4     3     4   1
     5     4     5   1
     6     4     8   1
     7     5     6   1
     8     6     7   1
     9     8     9   2
    10     8    14   1
    11     9    10   1
    12     9    11   1
    13    11    12   1
    14    11    15   1
    15    12    13   1
    16    12    33   1
    17    12    37   1
    18    13    14   1
    19    15    16   2
    20    16    17   1
    21    16    18   1
    22    18    19   1
    23    18    20   1
    24    20    21   1
    25    21    22   1
    26    22    23   1
    27    22    26   1
    28    23    24   1
    29    24    25   1
    30    24    27   1
    31    26    27   1
    32    27    28   1
    33    28    29   1
    34    28    30   2
    35    30    31   1
    36    31    32   1
    37    32    33   1
    38    33    34   2
    39    34    35   1
    40    35    36   1
    41    36    37   1
    42     4    38   1
    43     5    39   1
    44     5    40   1
    45     6    41   1
    46     7    42   1
    47     7    43   1
    48     7    44   1
    49    10    45   1
    50    10    46   1
    51    10    47   1
    52    11    48   1
    53    13    49   1
    54    13    50   1
    55    14    51   1
    56    14    52   1
    57    15    53   1
    58    17    54   1
    59    17    55   1
    60    17    56   1
    61    18    57   1
    62    19    58   1
    63    20    59   1
    64    20    60   1
    65    21    61   1
    66    21    62   1
    67    22    63   1
    68    23    64   1
    69    23    65   1
    70    24    66   1
    71    25    67   1
    72    25    68   1
    73    25    69   1
    74    27    70   1
    75    29    71   1
    76    29    72   1
    77    29    73   1
    78    30    74   1
    79    31    75   1
    80    31    76   1
    81    32    77   1
    82    32    78   1
    83    35    79   1
    84    35    80   1
    85    36    81   1
    86    36    82   1
    87    37    83   1
    88    37    84   1
@<TRIPOS>SUBSTRUCTURE
     1  GYN      2

