@<TRIPOS>MOLECULE
2x00_ligand_003
    84    88
SMALL
GAST_HUCK
****
This file was generated by PARSER (from files_GN.cpp)

@<TRIPOS>ATOM
      1 O6          3.5853   24.7525   -7.6018 O.2         1 GYN      -0.3700
      2 C5          4.3832   25.5621   -8.3304 C.2         1 GYN       0.2385
      3 O1          4.1298   25.8364   -9.6253 O.3         1 GYN      -0.2655
      4 C2          5.0476   26.7720  -10.1708 C.3         1 GYN       0.1059
      5 C3          6.0375   27.0818   -9.0132 C.3         1 GYN       0.0041
      6 C4          5.5313   26.2793   -7.7867 C.3         1 GYN       0.0613
      7 C7          6.5906   25.3409   -7.1607 C.3         1 GYN      -0.0438
      8 C8          5.7185   26.4195  -11.4502 C.2         1 GYN      -0.0559
      9 C13         6.3231   25.2231  -11.7298 C.2         1 GYN      -0.0876
     10 C14         5.9275   24.0209  -10.9718 C.3         1 GYN      -0.0498
     11 C12         7.2478   25.0439  -12.8990 C.3         1 GYN      -0.0250
     12 C27         7.7123   26.3934  -13.6205 C.3         1 GYN       0.0148
     13 C10         6.4046   27.2424  -13.7732 C.3         1 GYN      -0.0494
     14 C9          5.7470   27.5322  -12.4083 C.3         1 GYN      -0.0395
     15 C15         8.3946   24.1724  -12.5413 C.2         1 GYN      -0.1023
     16 C16         8.6306   22.8760  -12.8841 C.2         1 GYN      -0.0548
     17 C19         7.7585   22.1710  -13.8310 C.3         1 GYN      -0.0377
     18 C17         9.6148   22.0772  -12.1094 C.3         1 GYN       0.0804
     19 O20         8.8638   21.1987  -11.2626 O.3         1 GYN      -0.3807
     20 C18        10.6584   21.1979  -12.8799 C.3         1 GYN      -0.0158
     21 C21        11.9391   21.9033  -13.4057 C.3         1 GYN      -0.0223
     22 C43        11.7292   22.8252  -14.6321 C.3         1 GYN       0.0623
     23 C47        13.0405   23.3667  -15.2291 C.3         1 GYN      -0.0197
     24 C48        12.6043   23.7858  -16.6442 C.3         1 GYN      -0.0066
     25 C49        13.7620   23.7887  -17.6750 C.3         1 GYN      -0.0582
     26 O43        11.1043   22.1304  -15.7245 O.3         1 GYN      -0.3622
     27 C37        11.4472   22.7899  -16.9635 C.3         1 GYN       0.0865
     28 C36        10.3007   23.4437  -17.6268 C.2         1 GYN      -0.0553
     29 C38        10.2766   23.5518  -19.0845 C.3         1 GYN      -0.0379
     30 C35         9.3606   24.0478  -16.8694 C.2         1 GYN      -0.1039
     31 C34         8.3270   24.9774  -17.3049 C.3         1 GYN      -0.0315
     32 C33         7.5176   25.6216  -16.1284 C.3         1 GYN       0.0100
     33 C32         8.2791   26.1877  -14.9976 C.2         1 GYN       0.0383
     34 N31         9.4541   26.6226  -15.3141 N.2         1 GYN      -0.2722
     35 C30        10.4615   27.1934  -14.5497 C.3         1 GYN       0.0432
     36 C46        10.2257   26.9873  -13.0405 C.3         1 GYN      -0.0375
     37 C28         8.7314   27.2290  -12.7224 C.3         1 GYN      -0.0530
     38 H1          4.4245   27.6654  -10.3000 H           1 GYN       0.0753
     39 H2          6.0351   28.1508   -8.7884 H           1 GYN       0.0338
     40 H3          7.0640   26.8115   -9.2689 H           1 GYN       0.0338
     41 H4          5.1620   26.9602   -7.0195 H           1 GYN       0.0553
     42 H5          6.1614   24.7828   -6.3311 H           1 GYN       0.0258
     43 H6          7.4264   25.9199   -6.7774 H           1 GYN       0.0258
     44 H7          6.9759   24.6315   -7.8896 H           1 GYN       0.0258
     45 H8          4.8486   23.8736  -11.0360 H           1 GYN       0.0329
     46 H9          6.2262   24.1167   -9.9288 H           1 GYN       0.0329
     47 H10         6.3625   23.0979  -11.3318 H           1 GYN       0.0329
     48 H11         6.6159   24.5126  -13.6054 H           1 GYN       0.0417
     49 H12         5.6694   26.7108  -14.3840 H           1 GYN       0.0226
     50 H13         6.6080   28.1909  -14.2765 H           1 GYN       0.0226
     51 H14         6.2661   28.3756  -11.9430 H           1 GYN       0.0362
     52 H15         4.7227   27.8613  -12.6173 H           1 GYN       0.0362
     53 H16         8.9769   24.5438  -11.8302 H           1 GYN       0.0252
     54 H17         6.7175   22.2103  -13.5137 H           1 GYN       0.0377
     55 H18         8.0000   21.1137  -13.9376 H           1 GYN       0.0377
     56 H19         7.8322   22.6232  -14.8151 H           1 GYN       0.0377
     57 H20        10.1972   22.7075  -11.4290 H           1 GYN       0.0742
     58 H21         8.4206   21.7778  -10.6072 H           1 GYN       0.2129
     59 H22        10.1914   20.6522  -13.6997 H           1 GYN       0.0312
     60 H23        11.0170   20.4347  -12.1831 H           1 GYN       0.0312
     61 H24        12.6544   21.1231  -13.6866 H           1 GYN       0.0293
     62 H25        12.3915   22.4836  -12.5964 H           1 GYN       0.0293
     63 H26        11.1048   23.6687  -14.3231 H           1 GYN       0.0598
     64 H27        13.7969   22.5772  -15.2755 H           1 GYN       0.0295
     65 H28        13.4318   24.2095  -14.6514 H           1 GYN       0.0295
     66 H29        12.2164   24.8097  -16.5788 H           1 GYN       0.0345
     67 H30        13.3909   24.1063  -18.6510 H           1 GYN       0.0235
     68 H31        14.1988   22.7924  -17.7730 H           1 GYN       0.0235
     69 H32        14.5427   24.4837  -17.3589 H           1 GYN       0.0235
     70 H33        11.8205   21.9810  -17.5990 H           1 GYN       0.0747
     71 H34         9.3424   23.1410  -19.4720 H           1 GYN       0.0376
     72 H35        11.0967   23.0093  -19.5577 H           1 GYN       0.0376
     73 H36        10.3572   24.5969  -19.3875 H           1 GYN       0.0376
     74 H37         9.4210   23.9150  -15.8937 H           1 GYN       0.0245
     75 H38         7.6329   24.4549  -17.9684 H           1 GYN       0.0369
     76 H39         8.7957   25.7839  -17.8751 H           1 GYN       0.0369
     77 H40         6.8290   24.8566  -15.7736 H           1 GYN       0.0520
     78 H41         6.9049   26.4223  -16.5513 H           1 GYN       0.0520
     79 H42        10.5089   28.2594  -14.7837 H           1 GYN       0.0507
     80 H43        11.4154   26.7403  -14.8296 H           1 GYN       0.0507
     81 H44        10.8562   27.6752  -12.4685 H           1 GYN       0.0277
     82 H45        10.5089   25.9714  -12.7714 H           1 GYN       0.0277
     83 H46         8.5727   27.0357  -11.6585 H           1 GYN       0.0210
     84 H47         8.5707   28.3009  -12.8693 H           1 GYN       0.0210
@<TRIPOS>BOND
     1     1     2   2
     2     2     3   1
     3     2     6   1
     4     3     4   1
     5     4     5   1
     6     4     8   1
     7     5     6   1
     8     6     7   1
     9     8     9   2
    10     8    14   1
    11     9    10   1
    12     9    11   1
    13    11    12   1
    14    11    15   1
    15    12    13   1
    16    12    33   1
    17    12    37   1
    18    13    14   1
    19    15    16   2
    20    16    17   1
    21    16    18   1
    22    18    19   1
    23    18    20   1
    24    20    21   1
    25    21    22   1
    26    22    23   1
    27    22    26   1
    28    23    24   1
    29    24    25   1
    30    24    27   1
    31    26    27   1
    32    27    28   1
    33    28    29   1
    34    28    30   2
    35    30    31   1
    36    31    32   1
    37    32    33   1
    38    33    34   2
    39    34    35   1
    40    35    36   1
    41    36    37   1
    42     4    38   1
    43     5    39   1
    44     5    40   1
    45     6    41   1
    46     7    42   1
    47     7    43   1
    48     7    44   1
    49    10    45   1
    50    10    46   1
    51    10    47   1
    52    11    48   1
    53    13    49   1
    54    13    50   1
    55    14    51   1
    56    14    52   1
    57    15    53   1
    58    17    54   1
    59    17    55   1
    60    17    56   1
    61    18    57   1
    62    19    58   1
    63    20    59   1
    64    20    60   1
    65    21    61   1
    66    21    62   1
    67    22    63   1
    68    23    64   1
    69    23    65   1
    70    24    66   1
    71    25    67   1
    72    25    68   1
    73    25    69   1
    74    27    70   1
    75    29    71   1
    76    29    72   1
    77    29    73   1
    78    30    74   1
    79    31    75   1
    80    31    76   1
    81    32    77   1
    82    32    78   1
    83    35    79   1
    84    35    80   1
    85    36    81   1
    86    36    82   1
    87    37    83   1
    88    37    84   1
@<TRIPOS>SUBSTRUCTURE
     1  GYN      2

