@<TRIPOS>MOLECULE
2x00_ligand_073
    84    88
SMALL
GAST_HUCK
****
This file was generated by PARSER (from files_GN.cpp)

@<TRIPOS>ATOM
      1 O6          3.5781   31.4031  -13.7085 O.2         1 GYN      -0.3700
      2 C5          4.4694   30.4355  -13.3923 C.2         1 GYN       0.2385
      3 O1          4.1067   29.1537  -13.2557 O.3         1 GYN      -0.2655
      4 C2          5.1835   28.2516  -12.9983 C.3         1 GYN       0.1059
      5 C3          6.4236   29.2090  -12.9667 C.3         1 GYN       0.0041
      6 C4          5.9124   30.6470  -13.2524 C.3         1 GYN       0.0613
      7 C7          6.2514   31.6821  -12.1506 C.3         1 GYN      -0.0438
      8 C8          5.1187   27.3332  -11.8250 C.2         1 GYN      -0.0559
      9 C13         4.1901   27.3601  -10.8213 C.2         1 GYN      -0.0876
     10 C14         2.8837   27.9993  -11.0496 C.3         1 GYN      -0.0498
     11 C12         4.3705   26.6134   -9.5240 C.3         1 GYN      -0.0250
     12 C27         5.8493   26.0543   -9.2893 C.3         1 GYN       0.0148
     13 C10         6.2212   25.3414  -10.6345 C.3         1 GYN      -0.0494
     14 C9          6.1994   26.3247  -11.8261 C.3         1 GYN      -0.0395
     15 C15         3.8731   27.4183   -8.3793 C.2         1 GYN      -0.1023
     16 C16         2.7694   27.2421   -7.6079 C.2         1 GYN      -0.0548
     17 C19         1.9294   26.0451   -7.7153 C.3         1 GYN      -0.0377
     18 C17         2.2946   28.3515   -6.7462 C.3         1 GYN       0.0804
     19 O20         1.0243   28.7937   -7.2375 O.3         1 GYN      -0.3807
     20 C18         2.1866   28.0577   -5.2152 C.3         1 GYN      -0.0158
     21 C21         3.5001   28.1990   -4.3952 C.3         1 GYN      -0.0223
     22 C43         4.4635   26.9864   -4.4613 C.3         1 GYN       0.0623
     23 C47         5.7866   27.2089   -3.6938 C.3         1 GYN      -0.0197
     24 C48         6.0014   25.9075   -2.8918 C.3         1 GYN      -0.0066
     25 C49         5.9276   26.0975   -1.3531 C.3         1 GYN      -0.0582
     26 O43         3.8528   25.8353   -3.8581 O.3         1 GYN      -0.3622
     27 C37         4.8962   24.9442   -3.4244 C.3         1 GYN       0.0865
     28 C36         5.3784   23.9695   -4.4251 C.2         1 GYN      -0.0553
     29 C38         6.4888   23.0992   -4.0394 C.3         1 GYN      -0.0379
     30 C35         4.7883   23.8474   -5.6323 C.2         1 GYN      -0.1039
     31 C34         5.2302   23.0303   -6.7573 C.3         1 GYN      -0.0315
     32 C33         5.2342   23.7924   -8.1194 C.3         1 GYN       0.0100
     33 C32         6.0235   25.0292   -8.2051 C.2         1 GYN       0.0383
     34 N31         7.1217   24.9759   -7.5269 N.2         1 GYN      -0.2722
     35 C30         8.2417   25.8032   -7.5168 C.3         1 GYN       0.0432
     36 C46         8.2745   26.8051   -8.6927 C.3         1 GYN      -0.0375
     37 C28         6.8344   27.2630   -8.9945 C.3         1 GYN      -0.0530
     38 H1          5.2237   27.6322  -13.9028 H           1 GYN       0.0753
     39 H2          7.1424   28.9077  -13.7354 H           1 GYN       0.0338
     40 H3          6.9487   29.1774  -12.0050 H           1 GYN       0.0338
     41 H4          6.3089   31.0024  -14.2071 H           1 GYN       0.0553
     42 H5          5.7866   32.6448  -12.3789 H           1 GYN       0.0258
     43 H6          7.3343   31.8230  -12.1016 H           1 GYN       0.0258
     44 H7          5.8957   31.3391  -11.1757 H           1 GYN       0.0258
     45 H8          2.1353   27.7546  -10.3021 H           1 GYN       0.0329
     46 H9          2.4626   27.6764  -12.0054 H           1 GYN       0.0329
     47 H10         2.9996   29.0851  -11.0389 H           1 GYN       0.0329
     48 H11         3.7205   25.7483   -9.6368 H           1 GYN       0.0417
     49 H12         5.4965   24.5489  -10.8470 H           1 GYN       0.0226
     50 H13         7.2033   24.8597  -10.5833 H           1 GYN       0.0226
     51 H14         7.1708   26.8246  -11.8510 H           1 GYN       0.0362
     52 H15         6.1384   25.7241  -12.7377 H           1 GYN       0.0362
     53 H16         4.3392   28.2867   -8.2703 H           1 GYN       0.0252
     54 H17         1.5660   25.9165   -8.7354 H           1 GYN       0.0377
     55 H18         1.0507   26.0795   -7.0704 H           1 GYN       0.0377
     56 H19         2.4927   25.1629   -7.4304 H           1 GYN       0.0377
     57 H20         2.9303   29.2363   -6.8483 H           1 GYN       0.0742
     58 H21         0.3636   28.1451   -6.9147 H           1 GYN       0.2129
     59 H22         1.7500   27.0735   -5.0367 H           1 GYN       0.0312
     60 H23         1.4865   28.7864   -4.7949 H           1 GYN       0.0312
     61 H24         3.2292   28.3483   -3.3451 H           1 GYN       0.0293
     62 H25         4.0305   29.0963   -4.7210 H           1 GYN       0.0293
     63 H26         4.6907   26.7663   -5.5087 H           1 GYN       0.0598
     64 H27         5.7448   28.0818   -3.0353 H           1 GYN       0.0295
     65 H28         6.6056   27.3605   -4.4039 H           1 GYN       0.0295
     66 H29         7.0092   25.5394   -3.1073 H           1 GYN       0.0345
     67 H30         6.0248   25.1333   -0.8507 H           1 GYN       0.0235
     68 H31         4.9818   26.5578   -1.0590 H           1 GYN       0.0235
     69 H32         6.7508   26.7271   -1.0202 H           1 GYN       0.0235
     70 H33         4.4698   24.3527   -2.6086 H           1 GYN       0.0747
     71 H34         6.2499   22.0540   -4.2345 H           1 GYN       0.0376
     72 H35         6.7405   23.1747   -2.9791 H           1 GYN       0.0376
     73 H36         7.3681   23.3821   -4.6172 H           1 GYN       0.0376
     74 H37         3.9400   24.3368   -5.7844 H           1 GYN       0.0245
     75 H38         4.5497   22.1819   -6.8260 H           1 GYN       0.0369
     76 H39         6.2282   22.6142   -6.6042 H           1 GYN       0.0369
     77 H40         4.2024   23.9807   -8.3943 H           1 GYN       0.0520
     78 H41         5.6289   23.1013   -8.8687 H           1 GYN       0.0520
     79 H42         9.1374   25.1852   -7.5640 H           1 GYN       0.0507
     80 H43         8.2499   26.3362   -6.5641 H           1 GYN       0.0507
     81 H44         8.7204   26.3456   -9.5775 H           1 GYN       0.0277
     82 H45         8.8837   27.6675   -8.4258 H           1 GYN       0.0277
     83 H46         6.5019   27.8024   -8.1099 H           1 GYN       0.0210
     84 H47         6.8574   27.9934   -9.8013 H           1 GYN       0.0210
@<TRIPOS>BOND
     1     1     2   2
     2     2     3   1
     3     2     6   1
     4     3     4   1
     5     4     5   1
     6     4     8   1
     7     5     6   1
     8     6     7   1
     9     8     9   2
    10     8    14   1
    11     9    10   1
    12     9    11   1
    13    11    12   1
    14    11    15   1
    15    12    13   1
    16    12    33   1
    17    12    37   1
    18    13    14   1
    19    15    16   2
    20    16    17   1
    21    16    18   1
    22    18    19   1
    23    18    20   1
    24    20    21   1
    25    21    22   1
    26    22    23   1
    27    22    26   1
    28    23    24   1
    29    24    25   1
    30    24    27   1
    31    26    27   1
    32    27    28   1
    33    28    29   1
    34    28    30   2
    35    30    31   1
    36    31    32   1
    37    32    33   1
    38    33    34   2
    39    34    35   1
    40    35    36   1
    41    36    37   1
    42     4    38   1
    43     5    39   1
    44     5    40   1
    45     6    41   1
    46     7    42   1
    47     7    43   1
    48     7    44   1
    49    10    45   1
    50    10    46   1
    51    10    47   1
    52    11    48   1
    53    13    49   1
    54    13    50   1
    55    14    51   1
    56    14    52   1
    57    15    53   1
    58    17    54   1
    59    17    55   1
    60    17    56   1
    61    18    57   1
    62    19    58   1
    63    20    59   1
    64    20    60   1
    65    21    61   1
    66    21    62   1
    67    22    63   1
    68    23    64   1
    69    23    65   1
    70    24    66   1
    71    25    67   1
    72    25    68   1
    73    25    69   1
    74    27    70   1
    75    29    71   1
    76    29    72   1
    77    29    73   1
    78    30    74   1
    79    31    75   1
    80    31    76   1
    81    32    77   1
    82    32    78   1
    83    35    79   1
    84    35    80   1
    85    36    81   1
    86    36    82   1
    87    37    83   1
    88    37    84   1
@<TRIPOS>SUBSTRUCTURE
     1  GYN      2

