@<TRIPOS>MOLECULE
2x00_ligand_078
    84    88
SMALL
GAST_HUCK
****
This file was generated by PARSER (from files_GN.cpp)

@<TRIPOS>ATOM
      1 O6         -2.2679   25.0103   -4.3837 O.2         1 GYN      -0.3700
      2 C5         -1.0313   25.3160   -4.8375 C.2         1 GYN       0.2385
      3 O1         -0.3945   26.4583   -4.5300 O.3         1 GYN      -0.2655
      4 C2          0.8902   26.6198   -5.1421 C.3         1 GYN       0.1059
      5 C3          0.9965   25.2869   -5.9731 C.3         1 GYN       0.0041
      6 C4         -0.2965   24.4633   -5.7504 C.3         1 GYN       0.0613
      7 C7         -1.1318   24.2295   -7.0367 C.3         1 GYN      -0.0438
      8 C8          1.0945   27.9080   -5.8681 C.2         1 GYN      -0.0559
      9 C13         0.3997   29.0589   -5.6220 C.2         1 GYN      -0.0876
     10 C14        -0.2907   29.2388   -4.3318 C.3         1 GYN      -0.0498
     11 C12         0.4466   30.2576   -6.5390 C.3         1 GYN      -0.0250
     12 C27         1.3036   30.0410   -7.8761 C.3         1 GYN       0.0148
     13 C10         2.6009   29.3084   -7.3889 C.3         1 GYN      -0.0494
     14 C9          2.2848   27.9565   -6.7307 C.3         1 GYN      -0.0395
     15 C15        -0.9388   30.7248   -6.7777 C.2         1 GYN      -0.1023
     16 C16        -1.5803   31.8334   -6.3253 C.2         1 GYN      -0.0548
     17 C19        -0.8740   32.8667   -5.5598 C.3         1 GYN      -0.0377
     18 C17        -3.0579   31.9164   -6.4235 C.3         1 GYN       0.0804
     19 O20        -3.5540   31.8279   -5.0842 O.3         1 GYN      -0.3807
     20 C18        -3.7018   33.1642   -7.1161 C.3         1 GYN      -0.0158
     21 C21        -3.6441   33.2240   -8.6701 C.3         1 GYN      -0.0223
     22 C43        -2.2483   33.5395   -9.2638 C.3         1 GYN       0.0623
     23 C47        -2.2105   33.6922  -10.8021 C.3         1 GYN      -0.0197
     24 C48        -1.6147   35.0972  -11.0489 C.3         1 GYN      -0.0066
     25 C49        -2.6915   36.1301  -11.4793 C.3         1 GYN      -0.0582
     26 O43        -1.7527   34.7719   -8.7118 O.3         1 GYN      -0.3622
     27 C37        -0.9508   35.4566   -9.6879 C.3         1 GYN       0.0865
     28 C36         0.5011   35.1948   -9.6166 C.2         1 GYN      -0.0553
     29 C38         1.4003   36.0630  -10.3833 C.3         1 GYN      -0.0379
     30 C35         0.9965   34.2000   -8.8512 C.2         1 GYN      -0.1039
     31 C34         2.3786   33.7694   -8.7185 C.3         1 GYN      -0.0315
     32 C33         2.5255   32.3875   -7.9995 C.3         1 GYN       0.0100
     33 C32         1.7890   31.2625   -8.6041 C.2         1 GYN       0.0383
     34 N31         1.9211   31.2414   -9.8903 N.2         1 GYN      -0.2722
     35 C30         1.5881   30.2884  -10.8479 C.3         1 GYN       0.0432
     36 C46         1.2289   28.9151  -10.2396 C.3         1 GYN      -0.0375
     37 C28         0.4810   29.1497   -8.9069 C.3         1 GYN      -0.0530
     38 H1          1.6195   26.5829   -4.3361 H           1 GYN       0.0753
     39 H2          1.8700   24.7193   -5.6427 H           1 GYN       0.0338
     40 H3          1.1079   25.4449   -7.0393 H           1 GYN       0.0338
     41 H4         -0.0567   23.5073   -5.2900 H           1 GYN       0.0553
     42 H5         -2.0042   23.6147   -6.8135 H           1 GYN       0.0258
     43 H6         -0.5399   23.7265   -7.8011 H           1 GYN       0.0258
     44 H7         -1.4698   25.1819   -7.4456 H           1 GYN       0.0258
     45 H8          0.2607   28.7792   -3.5105 H           1 GYN       0.0329
     46 H9         -1.2932   28.8218   -4.3823 H           1 GYN       0.0329
     47 H10        -0.3934   30.2883   -4.0582 H           1 GYN       0.0329
     48 H11         0.9729   31.0077   -5.9542 H           1 GYN       0.0417
     49 H12         3.1106   29.9173   -6.6392 H           1 GYN       0.0226
     50 H13         3.3152   29.1489   -8.2065 H           1 GYN       0.0226
     51 H14         2.1888   27.2621   -7.5654 H           1 GYN       0.0362
     52 H15         3.1630   27.6374   -6.1530 H           1 GYN       0.0362
     53 H16        -1.5117   30.0506   -7.2311 H           1 GYN       0.0252
     54 H17        -0.5004   32.4682   -4.6195 H           1 GYN       0.0377
     55 H18        -1.5101   33.7141   -5.3054 H           1 GYN       0.0377
     56 H19        -0.0275   33.2491   -6.1229 H           1 GYN       0.0377
     57 H20        -3.4756   31.0420   -6.9328 H           1 GYN       0.0742
     58 H21        -4.5134   31.6492   -5.1670 H           1 GYN       0.2129
     59 H22        -3.2950   34.0873   -6.7027 H           1 GYN       0.0312
     60 H23        -4.7647   33.1598   -6.8579 H           1 GYN       0.0312
     61 H24        -4.3332   34.0060   -9.0012 H           1 GYN       0.0293
     62 H25        -4.0037   32.2752   -9.0796 H           1 GYN       0.0293
     63 H26        -1.5832   32.7169   -8.9872 H           1 GYN       0.0598
     64 H27        -3.1991   33.5759  -11.2556 H           1 GYN       0.0295
     65 H28        -1.5543   32.9296  -11.2347 H           1 GYN       0.0295
     66 H29        -0.8724   35.0447  -11.8527 H           1 GYN       0.0345
     67 H30        -2.2326   37.1098  -11.6276 H           1 GYN       0.0235
     68 H31        -3.4714   36.2185  -10.7199 H           1 GYN       0.0235
     69 H32        -3.1512   35.8230  -12.4211 H           1 GYN       0.0235
     70 H33        -1.0848   36.5205   -9.4638 H           1 GYN       0.0747
     71 H34         2.1127   36.5460   -9.7128 H           1 GYN       0.0376
     72 H35         0.8600   36.8511  -10.9124 H           1 GYN       0.0376
     73 H36         1.9450   35.4800  -11.1262 H           1 GYN       0.0376
     74 H37         0.3522   33.6687   -8.3299 H           1 GYN       0.0245
     75 H38         2.9337   34.5280   -8.1620 H           1 GYN       0.0369
     76 H39         2.8351   33.6929   -9.7094 H           1 GYN       0.0369
     77 H40         2.2560   32.5210   -6.9528 H           1 GYN       0.0520
     78 H41         3.5875   32.1332   -8.0171 H           1 GYN       0.0520
     79 H42         2.4315   30.1734  -11.5315 H           1 GYN       0.0507
     80 H43         0.7405   30.6813  -11.4118 H           1 GYN       0.0507
     81 H44         2.1334   28.3286  -10.0681 H           1 GYN       0.0277
     82 H45         0.5968   28.3521  -10.9304 H           1 GYN       0.0277
     83 H46        -0.4446   29.6622   -9.1803 H           1 GYN       0.0210
     84 H47         0.1906   28.1878   -8.4858 H           1 GYN       0.0210
@<TRIPOS>BOND
     1     1     2   2
     2     2     3   1
     3     2     6   1
     4     3     4   1
     5     4     5   1
     6     4     8   1
     7     5     6   1
     8     6     7   1
     9     8     9   2
    10     8    14   1
    11     9    10   1
    12     9    11   1
    13    11    12   1
    14    11    15   1
    15    12    13   1
    16    12    33   1
    17    12    37   1
    18    13    14   1
    19    15    16   2
    20    16    17   1
    21    16    18   1
    22    18    19   1
    23    18    20   1
    24    20    21   1
    25    21    22   1
    26    22    23   1
    27    22    26   1
    28    23    24   1
    29    24    25   1
    30    24    27   1
    31    26    27   1
    32    27    28   1
    33    28    29   1
    34    28    30   2
    35    30    31   1
    36    31    32   1
    37    32    33   1
    38    33    34   2
    39    34    35   1
    40    35    36   1
    41    36    37   1
    42     4    38   1
    43     5    39   1
    44     5    40   1
    45     6    41   1
    46     7    42   1
    47     7    43   1
    48     7    44   1
    49    10    45   1
    50    10    46   1
    51    10    47   1
    52    11    48   1
    53    13    49   1
    54    13    50   1
    55    14    51   1
    56    14    52   1
    57    15    53   1
    58    17    54   1
    59    17    55   1
    60    17    56   1
    61    18    57   1
    62    19    58   1
    63    20    59   1
    64    20    60   1
    65    21    61   1
    66    21    62   1
    67    22    63   1
    68    23    64   1
    69    23    65   1
    70    24    66   1
    71    25    67   1
    72    25    68   1
    73    25    69   1
    74    27    70   1
    75    29    71   1
    76    29    72   1
    77    29    73   1
    78    30    74   1
    79    31    75   1
    80    31    76   1
    81    32    77   1
    82    32    78   1
    83    35    79   1
    84    35    80   1
    85    36    81   1
    86    36    82   1
    87    37    83   1
    88    37    84   1
@<TRIPOS>SUBSTRUCTURE
     1  GYN      2

