@<TRIPOS>MOLECULE
2x00_ligand_087
    84    88
SMALL
GAST_HUCK
****
This file was generated by PARSER (from files_GN.cpp)

@<TRIPOS>ATOM
      1 O6          0.0864   27.3299  -10.2107 O.2         1 GYN      -0.3700
      2 C5          0.7830   27.8944   -9.2007 C.2         1 GYN       0.2385
      3 O1          1.3487   27.1515   -8.2282 O.3         1 GYN      -0.2655
      4 C2          2.1150   27.9312   -7.3171 C.3         1 GYN       0.1059
      5 C3          1.8534   29.4017   -7.7487 C.3         1 GYN       0.0041
      6 C4          1.0847   29.3232   -9.0965 C.3         1 GYN       0.0613
      7 C7         -0.1727   30.2229   -9.1279 C.3         1 GYN      -0.0438
      8 C8          1.8746   27.6535   -5.8777 C.2         1 GYN      -0.0559
      9 C13         0.6810   27.8282   -5.2346 C.2         1 GYN      -0.0876
     10 C14        -0.5664   27.7257   -6.0119 C.3         1 GYN      -0.0498
     11 C12         0.5679   27.9568   -3.7406 C.3         1 GYN      -0.0250
     12 C27         1.9612   27.9521   -2.9478 C.3         1 GYN       0.0148
     13 C10         2.8386   26.8651   -3.6571 C.3         1 GYN      -0.0494
     14 C9          3.0597   27.1835   -5.1522 C.3         1 GYN      -0.0395
     15 C15        -0.2887   29.1299   -3.4217 C.2         1 GYN      -0.1023
     16 C16        -1.5440   29.1873   -2.9018 C.2         1 GYN      -0.0548
     17 C19        -2.2237   27.9774   -2.4409 C.3         1 GYN      -0.0377
     18 C17        -2.3233   30.4495   -2.9835 C.3         1 GYN       0.0804
     19 O20        -3.3213   30.2604   -3.9919 O.3         1 GYN      -0.3807
     20 C18        -3.0409   30.9967   -1.7045 C.3         1 GYN      -0.0158
     21 C21        -2.1593   31.6358   -0.5925 C.3         1 GYN      -0.0223
     22 C43        -1.2356   30.6488    0.1609 C.3         1 GYN       0.0623
     23 C47        -0.4052   31.2528    1.3168 C.3         1 GYN      -0.0197
     24 C48        -0.8422   30.4806    2.5800 C.3         1 GYN      -0.0066
     25 C49        -1.8318   31.2951    3.4572 C.3         1 GYN      -0.0582
     26 O43        -2.0268   29.5944    0.7357 O.3         1 GYN      -0.3622
     27 C37        -1.4688   29.1833    1.9974 C.3         1 GYN       0.0865
     28 C36        -0.5519   28.0235    1.9464 C.2         1 GYN      -0.0553
     29 C38        -0.2055   27.3498    3.1949 C.3         1 GYN      -0.0379
     30 C35        -0.0635   27.5747    0.7697 C.2         1 GYN      -0.1039
     31 C34         0.7797   26.4186    0.5160 C.3         1 GYN      -0.0315
     32 C33         1.2783   26.3272   -0.9668 C.3         1 GYN       0.0100
     33 C32         1.9238   27.5383   -1.5051 C.2         1 GYN       0.0383
     34 N31         2.7675   28.0421   -0.6688 N.2         1 GYN      -0.2722
     35 C30         3.7308   29.0289   -0.8034 C.3         1 GYN       0.0432
     36 C46         3.9743   29.4853   -2.2576 C.3         1 GYN      -0.0375
     37 C28         2.6455   29.3854   -3.0374 C.3         1 GYN      -0.0530
     38 H1          3.1555   27.7090   -7.5888 H           1 GYN       0.0753
     39 H2          2.7964   29.9468   -7.8799 H           1 GYN       0.0338
     40 H3          1.2736   29.9395   -6.9860 H           1 GYN       0.0338
     41 H4          1.7440   29.5996   -9.9263 H           1 GYN       0.0553
     42 H5         -0.7205   30.0864  -10.0652 H           1 GYN       0.0258
     43 H6          0.1261   31.2746   -9.0500 H           1 GYN       0.0258
     44 H7         -0.8309   29.9703   -8.2821 H           1 GYN       0.0258
     45 H8         -0.5914   26.7710   -6.5500 H           1 GYN       0.0329
     46 H9         -0.6495   28.5601   -6.7249 H           1 GYN       0.0329
     47 H10        -1.4598   27.7458   -5.3872 H           1 GYN       0.0329
     48 H11         0.0427   27.0504   -3.4559 H           1 GYN       0.0417
     49 H12         2.3387   25.8916   -3.6008 H           1 GYN       0.0226
     50 H13         3.8145   26.7460   -3.1772 H           1 GYN       0.0226
     51 H14         3.8526   27.9328   -5.2429 H           1 GYN       0.0362
     52 H15         3.4244   26.2685   -5.6295 H           1 GYN       0.0362
     53 H16         0.0679   29.9900   -3.7686 H           1 GYN       0.0252
     54 H17        -2.2639   27.2332   -3.2324 H           1 GYN       0.0377
     55 H18        -3.2493   28.1613   -2.1267 H           1 GYN       0.0377
     56 H19        -1.7067   27.5370   -1.5968 H           1 GYN       0.0377
     57 H20        -1.7029   31.2704   -3.3510 H           1 GYN       0.0742
     58 H21        -4.0576   29.7782   -3.5557 H           1 GYN       0.2129
     59 H22        -3.6729   30.2262   -1.2627 H           1 GYN       0.0312
     60 H23        -3.7215   31.7878   -2.0365 H           1 GYN       0.0312
     61 H24        -2.8260   32.1037    0.1362 H           1 GYN       0.0293
     62 H25        -1.5574   32.4270   -1.0379 H           1 GYN       0.0293
     63 H26        -0.5397   30.2402   -0.5737 H           1 GYN       0.0598
     64 H27        -0.5447   32.3323    1.4112 H           1 GYN       0.0295
     65 H28         0.6548   31.0602    1.1379 H           1 GYN       0.0295
     66 H29         0.0341   30.2583    3.1997 H           1 GYN       0.0345
     67 H30        -2.1217   30.7131    4.3344 H           1 GYN       0.0235
     68 H31        -2.7298   31.5535    2.8928 H           1 GYN       0.0235
     69 H32        -1.3559   32.2160    3.8019 H           1 GYN       0.0235
     70 H33        -2.3295   28.8726    2.5972 H           1 GYN       0.0747
     71 H34        -0.5345   26.3098    3.1582 H           1 GYN       0.0376
     72 H35        -0.6776   27.8177    4.0615 H           1 GYN       0.0376
     73 H36         0.8743   27.3793    3.3534 H           1 GYN       0.0376
     74 H37        -0.2765   28.1032   -0.0261 H           1 GYN       0.0245
     75 H38         0.2169   25.5117    0.7546 H           1 GYN       0.0369
     76 H39         1.6514   26.4541    1.1747 H           1 GYN       0.0369
     77 H40         0.4319   26.0254   -1.5759 H           1 GYN       0.0520
     78 H41         2.0044   25.5112   -1.0220 H           1 GYN       0.0520
     79 H42         4.6575   28.6283   -0.4015 H           1 GYN       0.0507
     80 H43         3.4212   29.8777   -0.1920 H           1 GYN       0.0507
     81 H44         4.7343   28.8607   -2.7303 H           1 GYN       0.0277
     82 H45         4.3413   30.5152   -2.2661 H           1 GYN       0.0277
     83 H46         1.9906   30.1300   -2.5838 H           1 GYN       0.0210
     84 H47         2.8073   29.7024   -4.0693 H           1 GYN       0.0210
@<TRIPOS>BOND
     1     1     2   2
     2     2     3   1
     3     2     6   1
     4     3     4   1
     5     4     5   1
     6     4     8   1
     7     5     6   1
     8     6     7   1
     9     8     9   2
    10     8    14   1
    11     9    10   1
    12     9    11   1
    13    11    12   1
    14    11    15   1
    15    12    13   1
    16    12    33   1
    17    12    37   1
    18    13    14   1
    19    15    16   2
    20    16    17   1
    21    16    18   1
    22    18    19   1
    23    18    20   1
    24    20    21   1
    25    21    22   1
    26    22    23   1
    27    22    26   1
    28    23    24   1
    29    24    25   1
    30    24    27   1
    31    26    27   1
    32    27    28   1
    33    28    29   1
    34    28    30   2
    35    30    31   1
    36    31    32   1
    37    32    33   1
    38    33    34   2
    39    34    35   1
    40    35    36   1
    41    36    37   1
    42     4    38   1
    43     5    39   1
    44     5    40   1
    45     6    41   1
    46     7    42   1
    47     7    43   1
    48     7    44   1
    49    10    45   1
    50    10    46   1
    51    10    47   1
    52    11    48   1
    53    13    49   1
    54    13    50   1
    55    14    51   1
    56    14    52   1
    57    15    53   1
    58    17    54   1
    59    17    55   1
    60    17    56   1
    61    18    57   1
    62    19    58   1
    63    20    59   1
    64    20    60   1
    65    21    61   1
    66    21    62   1
    67    22    63   1
    68    23    64   1
    69    23    65   1
    70    24    66   1
    71    25    67   1
    72    25    68   1
    73    25    69   1
    74    27    70   1
    75    29    71   1
    76    29    72   1
    77    29    73   1
    78    30    74   1
    79    31    75   1
    80    31    76   1
    81    32    77   1
    82    32    78   1
    83    35    79   1
    84    35    80   1
    85    36    81   1
    86    36    82   1
    87    37    83   1
    88    37    84   1
@<TRIPOS>SUBSTRUCTURE
     1  GYN      2

