@<TRIPOS>MOLECULE
2x00_ligand_015
    84    88
SMALL
GAST_HUCK
****
This file was generated by PARSER (from files_GN.cpp)

@<TRIPOS>ATOM
      1 O6          3.1549   23.6440   -5.8708 O.2         1 GYN      -0.3700
      2 C5          4.1412   24.4322   -6.3601 C.2         1 GYN       0.2385
      3 O1          3.9178   25.3304   -7.3397 O.3         1 GYN      -0.2655
      4 C2          5.0447   26.1668   -7.5897 C.3         1 GYN       0.1059
      5 C3          6.1541   25.6167   -6.6408 C.3         1 GYN       0.0041
      6 C4          5.4689   24.5433   -5.7514 C.3         1 GYN       0.0613
      7 C7          6.2212   23.1914   -5.6588 C.3         1 GYN      -0.0438
      8 C8          5.4371   26.3130   -9.0184 C.2         1 GYN      -0.0559
      9 C13         5.7382   25.2779   -9.8608 C.2         1 GYN      -0.0876
     10 C14         5.1715   23.9523   -9.5767 C.3         1 GYN      -0.0498
     11 C12         6.4716   25.4623  -11.1604 C.3         1 GYN      -0.0250
     12 C27         7.0925   26.9220  -11.3651 C.3         1 GYN       0.0148
     13 C10         5.9434   27.9054  -10.9510 C.3         1 GYN      -0.0494
     14 C9          5.5194   27.7037   -9.4809 C.3         1 GYN      -0.0395
     15 C15         7.4744   24.3862  -11.3574 C.2         1 GYN      -0.1023
     16 C16         7.4852   23.3577  -12.2493 C.2         1 GYN      -0.0548
     17 C19         6.3767   23.1713  -13.1926 C.3         1 GYN      -0.0377
     18 C17         8.4747   22.2601  -12.0868 C.3         1 GYN       0.0804
     19 O20         7.7690   21.1454  -11.5339 O.3         1 GYN      -0.3807
     20 C18         9.2621   21.7310  -13.3311 C.3         1 GYN      -0.0158
     21 C21        10.4147   22.6114  -13.8945 C.3         1 GYN      -0.0223
     22 C43         9.9712   23.8931  -14.6462 C.3         1 GYN       0.0623
     23 C47        11.1136   24.6467  -15.3715 C.3         1 GYN      -0.0197
     24 C48        10.6982   24.6420  -16.8587 C.3         1 GYN      -0.0066
     25 C49        11.3862   23.5096  -17.6704 C.3         1 GYN      -0.0582
     26 O43         9.0003   23.5684  -15.6610 O.3         1 GYN      -0.3622
     27 C37         9.1558   24.4618  -16.7818 C.3         1 GYN       0.0865
     28 C36         8.3920   25.7298  -16.7231 C.2         1 GYN      -0.0553
     29 C38         8.4019   26.6151  -17.8867 C.3         1 GYN      -0.0379
     30 C35         7.6748   26.0531  -15.6259 C.2         1 GYN      -0.1039
     31 C34         6.9867   27.3035  -15.3438 C.3         1 GYN      -0.0315
     32 C33         6.4728   27.3973  -13.8710 C.3         1 GYN       0.0100
     33 C32         7.4616   27.2364  -12.7862 C.2         1 GYN       0.0383
     34 N31         8.6664   27.5762  -13.1042 N.2         1 GYN      -0.2722
     35 C30         9.8368   27.6307  -12.3584 C.3         1 GYN       0.0432
     36 C46         9.7146   26.8733  -11.0238 C.3         1 GYN      -0.0375
     37 C28         8.3322   27.1731  -10.3970 C.3         1 GYN      -0.0530
     38 H1          4.7378   27.1379   -7.1795 H           1 GYN       0.0753
     39 H2          6.5456   26.4183   -6.0073 H           1 GYN       0.0338
     40 H3          6.9957   25.1974   -7.2026 H           1 GYN       0.0338
     41 H4          5.3388   24.9276   -4.7357 H           1 GYN       0.0553
     42 H5          5.6033   22.4405   -5.1606 H           1 GYN       0.0258
     43 H6          7.1293   23.3211   -5.0699 H           1 GYN       0.0258
     44 H7          6.4963   22.8223   -6.6506 H           1 GYN       0.0258
     45 H8          5.3759   23.2092  -10.3449 H           1 GYN       0.0329
     46 H9          4.0819   24.0209   -9.5037 H           1 GYN       0.0329
     47 H10         5.5787   23.5536   -8.6456 H           1 GYN       0.0329
     48 H11         5.6916   25.3452  -11.9113 H           1 GYN       0.0417
     49 H12         5.0540   27.7348  -11.5645 H           1 GYN       0.0226
     50 H13         6.2436   28.9464  -11.0977 H           1 GYN       0.0226
     51 H14         6.2258   28.2408   -8.8435 H           1 GYN       0.0362
     52 H15         4.5412   28.1774   -9.3509 H           1 GYN       0.0362
     53 H16         8.1694   24.3593  -10.6499 H           1 GYN       0.0252
     54 H17         6.2224   24.0599  -13.7969 H           1 GYN       0.0377
     55 H18         5.4515   22.9663  -12.6549 H           1 GYN       0.0377
     56 H19         6.5315   22.3428  -13.8793 H           1 GYN       0.0377
     57 H20         9.2389   22.5172  -11.3461 H           1 GYN       0.0742
     58 H21         7.4109   21.4532  -10.6735 H           1 GYN       0.2129
     59 H22         8.5816   21.4688  -14.1416 H           1 GYN       0.0312
     60 H23         9.7338   20.7892  -13.0278 H           1 GYN       0.0312
     61 H24        10.9894   21.9942  -14.5921 H           1 GYN       0.0293
     62 H25        11.0862   22.8891  -13.0767 H           1 GYN       0.0293
     63 H26         9.5237   24.5613  -13.9065 H           1 GYN       0.0598
     64 H27        12.0943   24.1906  -15.2115 H           1 GYN       0.0295
     65 H28        11.1617   25.6783  -15.0109 H           1 GYN       0.0295
     66 H29        10.9771   25.5933  -17.3230 H           1 GYN       0.0345
     67 H30        11.0545   23.5417  -18.7102 H           1 GYN       0.0235
     68 H31        11.1446   22.5283  -17.2571 H           1 GYN       0.0235
     69 H32        12.4702   23.6393  -17.6548 H           1 GYN       0.0235
     70 H33         8.7875   23.9183  -17.6568 H           1 GYN       0.0747
     71 H34         7.3815   26.7911  -18.2336 H           1 GYN       0.0376
     72 H35         8.9621   26.1922  -18.7229 H           1 GYN       0.0376
     73 H36         8.8593   27.5719  -17.6287 H           1 GYN       0.0376
     74 H37         7.6400   25.3915  -14.9011 H           1 GYN       0.0245
     75 H38         6.1360   27.4017  -16.0239 H           1 GYN       0.0369
     76 H39         7.6636   28.1429  -15.5269 H           1 GYN       0.0369
     77 H40         5.6838   26.6559  -13.7652 H           1 GYN       0.0520
     78 H41         6.0052   28.3771  -13.7553 H           1 GYN       0.0520
     79 H42        10.0702   28.6808  -12.1694 H           1 GYN       0.0507
     80 H43        10.6508   27.2000  -12.9446 H           1 GYN       0.0507
     81 H44        10.5109   27.1868  -10.3456 H           1 GYN       0.0277
     82 H45         9.8406   25.8065  -11.2078 H           1 GYN       0.0277
     83 H46         8.2424   26.5915   -9.4764 H           1 GYN       0.0210
     84 H47         8.3639   28.2242  -10.0962 H           1 GYN       0.0210
@<TRIPOS>BOND
     1     1     2   2
     2     2     3   1
     3     2     6   1
     4     3     4   1
     5     4     5   1
     6     4     8   1
     7     5     6   1
     8     6     7   1
     9     8     9   2
    10     8    14   1
    11     9    10   1
    12     9    11   1
    13    11    12   1
    14    11    15   1
    15    12    13   1
    16    12    33   1
    17    12    37   1
    18    13    14   1
    19    15    16   2
    20    16    17   1
    21    16    18   1
    22    18    19   1
    23    18    20   1
    24    20    21   1
    25    21    22   1
    26    22    23   1
    27    22    26   1
    28    23    24   1
    29    24    25   1
    30    24    27   1
    31    26    27   1
    32    27    28   1
    33    28    29   1
    34    28    30   2
    35    30    31   1
    36    31    32   1
    37    32    33   1
    38    33    34   2
    39    34    35   1
    40    35    36   1
    41    36    37   1
    42     4    38   1
    43     5    39   1
    44     5    40   1
    45     6    41   1
    46     7    42   1
    47     7    43   1
    48     7    44   1
    49    10    45   1
    50    10    46   1
    51    10    47   1
    52    11    48   1
    53    13    49   1
    54    13    50   1
    55    14    51   1
    56    14    52   1
    57    15    53   1
    58    17    54   1
    59    17    55   1
    60    17    56   1
    61    18    57   1
    62    19    58   1
    63    20    59   1
    64    20    60   1
    65    21    61   1
    66    21    62   1
    67    22    63   1
    68    23    64   1
    69    23    65   1
    70    24    66   1
    71    25    67   1
    72    25    68   1
    73    25    69   1
    74    27    70   1
    75    29    71   1
    76    29    72   1
    77    29    73   1
    78    30    74   1
    79    31    75   1
    80    31    76   1
    81    32    77   1
    82    32    78   1
    83    35    79   1
    84    35    80   1
    85    36    81   1
    86    36    82   1
    87    37    83   1
    88    37    84   1
@<TRIPOS>SUBSTRUCTURE
     1  GYN      2

