@<TRIPOS>MOLECULE
2x00_ligand_064
    84    88
SMALL
GAST_HUCK
****
This file was generated by PARSER (from files_GN.cpp)

@<TRIPOS>ATOM
      1 O6         -1.2607   27.4654   -3.6888 O.2         1 GYN      -0.3700
      2 C5         -0.9743   27.1733   -4.9741 C.2         1 GYN       0.2385
      3 O1         -0.2231   26.1138   -5.3335 O.3         1 GYN      -0.2655
      4 C2         -0.1097   25.9223   -6.7456 C.3         1 GYN       0.1059
      5 C3         -0.7060   27.2670   -7.2692 C.3         1 GYN       0.0041
      6 C4         -1.5729   27.8419   -6.1224 C.3         1 GYN       0.0613
      7 C7         -1.5447   29.3899   -6.0252 C.3         1 GYN      -0.0438
      8 C8          1.2482   25.5855   -7.2428 C.2         1 GYN      -0.0559
      9 C13         2.2313   25.0737   -6.4492 C.2         1 GYN      -0.0876
     10 C14         1.8683   24.1686   -5.3438 C.3         1 GYN      -0.0498
     11 C12         3.6829   25.1880   -6.8102 C.3         1 GYN      -0.0250
     12 C27         3.9714   26.1465   -8.0553 C.3         1 GYN       0.0148
     13 C10         2.9625   25.6448   -9.1500 C.3         1 GYN      -0.0494
     14 C9          1.4865   25.7651   -8.6873 C.3         1 GYN      -0.0395
     15 C15         4.4551   25.5089   -5.5881 C.2         1 GYN      -0.1023
     16 C16         5.1479   24.6453   -4.7992 C.2         1 GYN      -0.0548
     17 C19         5.6662   23.3674   -5.3075 C.3         1 GYN      -0.0377
     18 C17         5.1934   24.8841   -3.3395 C.3         1 GYN       0.0804
     19 O20         4.4252   23.8241   -2.7581 O.3         1 GYN      -0.3807
     20 C18         6.5971   24.9384   -2.6619 C.3         1 GYN      -0.0158
     21 C21         7.3803   26.2752   -2.7802 C.3         1 GYN      -0.0223
     22 C43         7.9680   26.6052   -4.1786 C.3         1 GYN       0.0623
     23 C47         9.0079   27.7384   -4.1557 C.3         1 GYN      -0.0197
     24 C48         9.8623   27.4810   -5.4088 C.3         1 GYN      -0.0066
     25 C49        11.3378   27.9218   -5.2313 C.3         1 GYN      -0.0582
     26 O43         8.6853   25.4924   -4.7203 O.3         1 GYN      -0.3622
     27 C37         9.6628   25.9634   -5.6705 C.3         1 GYN       0.0865
     28 C36         9.3511   25.6250   -7.0761 C.2         1 GYN      -0.0553
     29 C38        10.4568   25.4606   -8.0224 C.3         1 GYN      -0.0379
     30 C35         8.0715   25.4602   -7.4787 C.2         1 GYN      -0.1039
     31 C34         7.6304   24.9791   -8.7832 C.3         1 GYN      -0.0315
     32 C33         6.0830   24.8609   -8.9600 C.3         1 GYN       0.0100
     33 C32         5.3268   26.0887   -8.6919 C.2         1 GYN       0.0383
     34 N31         5.7809   27.1024   -9.3525 N.2         1 GYN      -0.2722
     35 C30         5.2935   28.3971   -9.5074 C.3         1 GYN       0.0432
     36 C46         3.9062   28.6331   -8.8597 C.3         1 GYN      -0.0375
     37 C28         3.7072   27.6618   -7.6686 C.3         1 GYN      -0.0530
     38 H1         -0.7784   25.1028   -7.0234 H           1 GYN       0.0753
     39 H2         -1.3070   27.1170   -8.1753 H           1 GYN       0.0338
     40 H3          0.0986   27.9769   -7.5038 H           1 GYN       0.0338
     41 H4         -2.6069   27.5019   -6.2368 H           1 GYN       0.0553
     42 H5         -2.1628   29.7258   -5.1847 H           1 GYN       0.0258
     43 H6         -1.9353   29.8256   -6.9523 H           1 GYN       0.0258
     44 H7         -0.5219   29.7499   -5.8686 H           1 GYN       0.0258
     45 H8          0.8745   23.7207   -5.4639 H           1 GYN       0.0329
     46 H9          1.8977   24.7181   -4.3991 H           1 GYN       0.0329
     47 H10         2.5628   23.3321   -5.2744 H           1 GYN       0.0329
     48 H11         3.9301   24.1798   -7.1334 H           1 GYN       0.0417
     49 H12         3.1640   24.5913   -9.3801 H           1 GYN       0.0226
     50 H13         3.0894   26.1976  -10.0828 H           1 GYN       0.0226
     51 H14         1.1429   26.7447   -9.0200 H           1 GYN       0.0362
     52 H15         0.8940   25.0220   -9.2247 H           1 GYN       0.0362
     53 H16         4.2234   26.3899   -5.1844 H           1 GYN       0.0252
     54 H17         4.8631   22.7367   -5.6860 H           1 GYN       0.0377
     55 H18         6.1773   22.7819   -4.5439 H           1 GYN       0.0377
     56 H19         6.3852   23.5403   -6.1048 H           1 GYN       0.0377
     57 H20         4.6715   25.8055   -3.0564 H           1 GYN       0.0742
     58 H21         4.5321   23.8960   -1.7877 H           1 GYN       0.2129
     59 H22         7.2254   24.1174   -3.0057 H           1 GYN       0.0312
     60 H23         6.4457   24.7762   -1.5897 H           1 GYN       0.0312
     61 H24         8.2066   26.2188   -2.0649 H           1 GYN       0.0293
     62 H25         6.7366   27.1021   -2.4699 H           1 GYN       0.0293
     63 H26         7.1499   26.8782   -4.8510 H           1 GYN       0.0598
     64 H27         9.6247   27.6676   -3.2548 H           1 GYN       0.0295
     65 H28         8.5311   28.7190   -4.1919 H           1 GYN       0.0295
     66 H29         9.4375   28.0594   -6.2327 H           1 GYN       0.0345
     67 H30        11.9241   27.6466   -6.1062 H           1 GYN       0.0235
     68 H31        11.7856   27.4498   -4.3560 H           1 GYN       0.0235
     69 H32        11.3834   29.0050   -5.1137 H           1 GYN       0.0235
     70 H33        10.5733   25.4278   -5.3815 H           1 GYN       0.0747
     71 H34        10.4359   24.4620   -8.4610 H           1 GYN       0.0376
     72 H35        11.4305   25.5860   -7.5506 H           1 GYN       0.0376
     73 H36        10.3802   26.1955   -8.8253 H           1 GYN       0.0376
     74 H37         7.3538   25.6592   -6.8286 H           1 GYN       0.0245
     75 H38         8.0596   23.9870   -8.9494 H           1 GYN       0.0369
     76 H39         8.0242   25.6414   -9.5591 H           1 GYN       0.0369
     77 H40         5.7429   24.0316   -8.3470 H           1 GYN       0.0520
     78 H41         5.8909   24.5686   -9.9966 H           1 GYN       0.0520
     79 H42         5.2394   28.6179  -10.5742 H           1 GYN       0.0507
     80 H43         6.0287   29.0723   -9.0689 H           1 GYN       0.0507
     81 H44         3.1200   28.4813   -9.6034 H           1 GYN       0.0277
     82 H45         3.8243   29.6668   -8.5147 H           1 GYN       0.0277
     83 H46         4.4116   27.9610   -6.8892 H           1 GYN       0.0210
     84 H47         2.7081   27.8172   -7.2632 H           1 GYN       0.0210
@<TRIPOS>BOND
     1     1     2   2
     2     2     3   1
     3     2     6   1
     4     3     4   1
     5     4     5   1
     6     4     8   1
     7     5     6   1
     8     6     7   1
     9     8     9   2
    10     8    14   1
    11     9    10   1
    12     9    11   1
    13    11    12   1
    14    11    15   1
    15    12    13   1
    16    12    33   1
    17    12    37   1
    18    13    14   1
    19    15    16   2
    20    16    17   1
    21    16    18   1
    22    18    19   1
    23    18    20   1
    24    20    21   1
    25    21    22   1
    26    22    23   1
    27    22    26   1
    28    23    24   1
    29    24    25   1
    30    24    27   1
    31    26    27   1
    32    27    28   1
    33    28    29   1
    34    28    30   2
    35    30    31   1
    36    31    32   1
    37    32    33   1
    38    33    34   2
    39    34    35   1
    40    35    36   1
    41    36    37   1
    42     4    38   1
    43     5    39   1
    44     5    40   1
    45     6    41   1
    46     7    42   1
    47     7    43   1
    48     7    44   1
    49    10    45   1
    50    10    46   1
    51    10    47   1
    52    11    48   1
    53    13    49   1
    54    13    50   1
    55    14    51   1
    56    14    52   1
    57    15    53   1
    58    17    54   1
    59    17    55   1
    60    17    56   1
    61    18    57   1
    62    19    58   1
    63    20    59   1
    64    20    60   1
    65    21    61   1
    66    21    62   1
    67    22    63   1
    68    23    64   1
    69    23    65   1
    70    24    66   1
    71    25    67   1
    72    25    68   1
    73    25    69   1
    74    27    70   1
    75    29    71   1
    76    29    72   1
    77    29    73   1
    78    30    74   1
    79    31    75   1
    80    31    76   1
    81    32    77   1
    82    32    78   1
    83    35    79   1
    84    35    80   1
    85    36    81   1
    86    36    82   1
    87    37    83   1
    88    37    84   1
@<TRIPOS>SUBSTRUCTURE
     1  GYN      2

