@<TRIPOS>MOLECULE
2x00_ligand_029
    84    88
SMALL
GAST_HUCK
****
This file was generated by PARSER (from files_GN.cpp)

@<TRIPOS>ATOM
      1 O6         -5.5969   29.6892   -6.8770 O.2         1 GYN      -0.3700
      2 C5         -5.0447   28.5113   -7.2390 C.2         1 GYN       0.2385
      3 O1         -4.1102   27.8922   -6.4899 O.3         1 GYN      -0.2655
      4 C2         -3.7121   26.6271   -7.0094 C.3         1 GYN       0.1059
      5 C3         -4.5708   26.4593   -8.3080 C.3         1 GYN       0.0041
      6 C4         -5.4514   27.7411   -8.4199 C.3         1 GYN       0.0613
      7 C7         -5.2507   28.5543   -9.7249 C.3         1 GYN      -0.0438
      8 C8         -2.2272   26.5736   -7.1072 C.2         1 GYN      -0.0559
      9 C13        -1.4417   25.7178   -6.3784 C.2         1 GYN      -0.0876
     10 C14        -2.0510   24.4968   -5.8232 C.3         1 GYN      -0.0498
     11 C12         0.0529   25.8538   -6.2641 C.3         1 GYN      -0.0250
     12 C27         0.6559   27.2060   -6.8746 C.3         1 GYN       0.0148
     13 C10        -0.1005   27.4286   -8.2298 C.3         1 GYN      -0.0494
     14 C9         -1.6258   27.5738   -8.0047 C.3         1 GYN      -0.0395
     15 C15         0.5139   25.6090   -4.8704 C.2         1 GYN      -0.1023
     16 C16         1.2318   24.5723   -4.3542 C.2         1 GYN      -0.0548
     17 C19         1.6766   23.4710   -5.2107 C.3         1 GYN      -0.0377
     18 C17         1.3520   24.4049   -2.8875 C.3         1 GYN       0.0804
     19 O20         0.4399   23.3645   -2.5345 O.3         1 GYN      -0.3807
     20 C18         2.7370   24.0653   -2.2375 C.3         1 GYN      -0.0158
     21 C21         3.7146   25.2449   -1.9835 C.3         1 GYN      -0.0223
     22 C43         4.4174   25.8056   -3.2413 C.3         1 GYN       0.0623
     23 C47         5.5204   26.8257   -2.9149 C.3         1 GYN      -0.0197
     24 C48         6.3574   26.8148   -4.2037 C.3         1 GYN      -0.0066
     25 C49         7.8357   27.2206   -3.9780 C.3         1 GYN      -0.0582
     26 O43         5.0924   24.7749   -3.9820 O.3         1 GYN      -0.3622
     27 C37         6.1524   25.3729   -4.7596 C.3         1 GYN       0.0865
     28 C36         5.9114   25.3595   -6.2179 C.2         1 GYN      -0.0553
     29 C38         7.0476   25.3154   -7.1352 C.3         1 GYN      -0.0379
     30 C35         4.6538   25.5258   -6.6803 C.2         1 GYN      -0.1039
     31 C34         4.2414   25.8648   -8.0354 C.3         1 GYN      -0.0315
     32 C33         2.7137   26.1853   -8.1642 C.3         1 GYN       0.0100
     33 C32         2.1238   27.1311   -7.1905 C.2         1 GYN       0.0383
     34 N31         2.9569   28.0079   -6.7316 N.2         1 GYN      -0.2722
     35 C30         2.7876   29.0436   -5.8239 C.3         1 GYN       0.0432
     36 C46         1.5083   28.8626   -4.9839 C.3         1 GYN      -0.0375
     37 C28         0.3541   28.4614   -5.9354 C.3         1 GYN      -0.0530
     38 H1         -4.1079   25.9092   -6.2931 H           1 GYN       0.0753
     39 H2         -5.2246   25.5807   -8.2228 H           1 GYN       0.0338
     40 H3         -3.9598   26.3090   -9.2038 H           1 GYN       0.0338
     41 H4         -6.5170   27.4861   -8.3250 H           1 GYN       0.0553
     42 H5         -5.8729   29.4543   -9.7042 H           1 GYN       0.0258
     43 H6         -5.5436   27.9542  -10.5902 H           1 GYN       0.0258
     44 H7         -4.2038   28.8504   -9.8346 H           1 GYN       0.0258
     45 H8         -2.6833   24.0005   -6.5655 H           1 GYN       0.0329
     46 H9         -2.6470   24.7458   -4.9435 H           1 GYN       0.0329
     47 H10        -1.3171   23.7586   -5.5122 H           1 GYN       0.0329
     48 H11         0.4026   25.0394   -6.8932 H           1 GYN       0.0417
     49 H12         0.0605   26.5810   -8.9092 H           1 GYN       0.0226
     50 H13         0.2749   28.3203   -8.7398 H           1 GYN       0.0226
     51 H14        -1.8380   28.5758   -7.6202 H           1 GYN       0.0362
     52 H15        -2.0825   27.5160   -8.9968 H           1 GYN       0.0362
     53 H16         0.1488   26.2580   -4.2121 H           1 GYN       0.0252
     54 H17         0.8224   22.9887   -5.6854 H           1 GYN       0.0377
     55 H18         2.2035   22.6852   -4.6710 H           1 GYN       0.0377
     56 H19         2.3466   23.8386   -5.9835 H           1 GYN       0.0377
     57 H20         0.9800   25.2875   -2.3611 H           1 GYN       0.0742
     58 H21         0.8520   22.5243   -2.8355 H           1 GYN       0.2129
     59 H22         3.2557   23.2821   -2.7906 H           1 GYN       0.0312
     60 H23         2.5285   23.6387   -1.2509 H           1 GYN       0.0312
     61 H24         4.4880   24.8897   -1.2990 H           1 GYN       0.0293
     62 H25         3.1831   26.0545   -1.4772 H           1 GYN       0.0293
     63 H26         3.6600   26.2831   -3.8684 H           1 GYN       0.0598
     64 H27         6.1193   26.4916   -2.0621 H           1 GYN       0.0295
     65 H28         5.1091   27.8160   -2.7001 H           1 GYN       0.0295
     66 H29         5.9078   27.5434   -4.8863 H           1 GYN       0.0345
     67 H30         8.3805   27.2000   -4.9222 H           1 GYN       0.0235
     68 H31         8.3222   26.5408   -3.2768 H           1 GYN       0.0235
     69 H32         7.8844   28.2312   -3.5720 H           1 GYN       0.0235
     70 H33         7.0290   24.7566   -4.5352 H           1 GYN       0.0747
     71 H34         6.9450   24.4614   -7.8071 H           1 GYN       0.0376
     72 H35         8.0007   25.2148   -6.6136 H           1 GYN       0.0376
     73 H36         7.0964   26.2295   -7.7290 H           1 GYN       0.0376
     74 H37         3.9290   25.5109   -6.0135 H           1 GYN       0.0245
     75 H38         4.4902   25.0372   -8.7048 H           1 GYN       0.0369
     76 H39         4.7987   26.7456   -8.3663 H           1 GYN       0.0369
     77 H40         2.1975   25.2268   -8.1223 H           1 GYN       0.0520
     78 H41         2.5464   26.5868   -9.1682 H           1 GYN       0.0520
     79 H42         2.7393   29.9802   -6.3821 H           1 GYN       0.0507
     80 H43         3.6578   29.0840   -5.1659 H           1 GYN       0.0507
     81 H44         1.2699   29.7993   -4.4687 H           1 GYN       0.0277
     82 H45         1.6756   28.0943   -4.2260 H           1 GYN       0.0277
     83 H46        -0.5465   28.3049   -5.3355 H           1 GYN       0.0210
     84 H47         0.1648   29.3517   -6.5441 H           1 GYN       0.0210
@<TRIPOS>BOND
     1     1     2   2
     2     2     3   1
     3     2     6   1
     4     3     4   1
     5     4     5   1
     6     4     8   1
     7     5     6   1
     8     6     7   1
     9     8     9   2
    10     8    14   1
    11     9    10   1
    12     9    11   1
    13    11    12   1
    14    11    15   1
    15    12    13   1
    16    12    33   1
    17    12    37   1
    18    13    14   1
    19    15    16   2
    20    16    17   1
    21    16    18   1
    22    18    19   1
    23    18    20   1
    24    20    21   1
    25    21    22   1
    26    22    23   1
    27    22    26   1
    28    23    24   1
    29    24    25   1
    30    24    27   1
    31    26    27   1
    32    27    28   1
    33    28    29   1
    34    28    30   2
    35    30    31   1
    36    31    32   1
    37    32    33   1
    38    33    34   2
    39    34    35   1
    40    35    36   1
    41    36    37   1
    42     4    38   1
    43     5    39   1
    44     5    40   1
    45     6    41   1
    46     7    42   1
    47     7    43   1
    48     7    44   1
    49    10    45   1
    50    10    46   1
    51    10    47   1
    52    11    48   1
    53    13    49   1
    54    13    50   1
    55    14    51   1
    56    14    52   1
    57    15    53   1
    58    17    54   1
    59    17    55   1
    60    17    56   1
    61    18    57   1
    62    19    58   1
    63    20    59   1
    64    20    60   1
    65    21    61   1
    66    21    62   1
    67    22    63   1
    68    23    64   1
    69    23    65   1
    70    24    66   1
    71    25    67   1
    72    25    68   1
    73    25    69   1
    74    27    70   1
    75    29    71   1
    76    29    72   1
    77    29    73   1
    78    30    74   1
    79    31    75   1
    80    31    76   1
    81    32    77   1
    82    32    78   1
    83    35    79   1
    84    35    80   1
    85    36    81   1
    86    36    82   1
    87    37    83   1
    88    37    84   1
@<TRIPOS>SUBSTRUCTURE
     1  GYN      2

