@<TRIPOS>MOLECULE
2x00_ligand_070
    84    88
SMALL
GAST_HUCK
****
This file was generated by PARSER (from files_GN.cpp)

@<TRIPOS>ATOM
      1 O6          3.5969   31.1982   -9.9754 O.2         1 GYN      -0.3700
      2 C5          4.3924   31.0986  -11.0669 C.2         1 GYN       0.2385
      3 O1          4.0662   30.3368  -12.1341 O.3         1 GYN      -0.2655
      4 C2          5.0455   30.3583  -13.1703 C.3         1 GYN       0.1059
      5 C3          6.1405   31.3262  -12.6211 C.3         1 GYN       0.0041
      6 C4          5.6710   31.7972  -11.2200 C.3         1 GYN       0.0613
      7 C7          6.6692   31.4769  -10.0778 C.3         1 GYN      -0.0438
      8 C8          5.5934   29.0570  -13.6582 C.2         1 GYN      -0.0559
      9 C13         5.7173   27.9043  -12.9273 C.2         1 GYN      -0.0876
     10 C14         4.9350   27.7354  -11.6893 C.3         1 GYN      -0.0498
     11 C12         6.5066   26.7149  -13.4077 C.3         1 GYN      -0.0250
     12 C27         7.4621   26.9770  -14.6619 C.3         1 GYN       0.0148
     13 C10         6.5920   27.8084  -15.6646 C.3         1 GYN      -0.0494
     14 C9          6.0998   29.1331  -15.0385 C.3         1 GYN      -0.0395
     15 C15         7.2280   26.0564  -12.2953 C.2         1 GYN      -0.1023
     16 C16         6.9312   24.8939  -11.6479 C.2         1 GYN      -0.0548
     17 C19         5.8545   24.0111  -12.1093 C.3         1 GYN      -0.0377
     18 C17         7.4964   24.6578  -10.3011 C.3         1 GYN       0.0804
     19 O20         6.4336   24.9186   -9.3791 O.3         1 GYN      -0.3807
     20 C18         8.1082   23.2547   -9.9815 C.3         1 GYN      -0.0158
     21 C21         9.5578   23.0027  -10.4731 C.3         1 GYN      -0.0223
     22 C43         9.7198   22.8294  -12.0037 C.3         1 GYN       0.0623
     23 C47        11.1421   22.4319  -12.4342 C.3         1 GYN      -0.0197
     24 C48        10.9077   21.8338  -13.8291 C.3         1 GYN      -0.0066
     25 C49        11.9861   20.8028  -14.2388 C.3         1 GYN      -0.0582
     26 O43         8.8845   21.7742  -12.5068 O.3         1 GYN      -0.3622
     27 C37         9.4643   21.2572  -13.7235 C.3         1 GYN       0.0865
     28 C36         8.6629   21.5283  -14.9317 C.2         1 GYN      -0.0553
     29 C38         8.7087   20.5870  -16.0464 C.3         1 GYN      -0.0379
     30 C35         8.0201   22.7100  -15.0417 C.2         1 GYN      -0.1039
     31 C34         7.4490   23.3088  -16.2413 C.3         1 GYN      -0.0315
     32 C33         6.9601   24.7824  -16.0337 C.3         1 GYN       0.0100
     33 C32         7.8900   25.7263  -15.3755 C.2         1 GYN       0.0383
     34 N31         9.1386   25.4537  -15.5602 N.2         1 GYN      -0.2722
     35 C30        10.2945   26.0681  -15.0999 C.3         1 GYN       0.0432
     36 C46        10.0126   27.0457  -13.9423 C.3         1 GYN      -0.0375
     37 C28         8.7328   27.8559  -14.2694 C.3         1 GYN      -0.0530
     38 H1          4.5260   30.8629  -13.9930 H           1 GYN       0.0753
     39 H2          6.2423   32.1883  -13.2835 H           1 GYN       0.0338
     40 H3          7.1182   30.8394  -12.5672 H           1 GYN       0.0338
     41 H4          5.4716   32.8703  -11.2222 H           1 GYN       0.0553
     42 H5          6.2554   31.7739   -9.1125 H           1 GYN       0.0258
     43 H6          7.5943   32.0310  -10.2376 H           1 GYN       0.0258
     44 H7          6.9015   30.4100  -10.0455 H           1 GYN       0.0258
     45 H8          3.8762   27.9151  -11.8784 H           1 GYN       0.0329
     46 H9          5.3058   28.4152  -10.9241 H           1 GYN       0.0329
     47 H10         4.9835   26.7400  -11.2609 H           1 GYN       0.0329
     48 H11         5.7245   26.0476  -13.7533 H           1 GYN       0.0417
     49 H12         5.7055   27.2399  -15.9634 H           1 GYN       0.0226
     50 H13         7.1537   28.0295  -16.5790 H           1 GYN       0.0226
     51 H14         6.9154   29.8619  -15.0743 H           1 GYN       0.0362
     52 H15         5.3124   29.5103  -15.6989 H           1 GYN       0.0362
     53 H16         7.9059   26.6375  -11.8649 H           1 GYN       0.0252
     54 H17         4.9083   24.5424  -12.1165 H           1 GYN       0.0377
     55 H18         5.7002   23.1401  -11.4743 H           1 GYN       0.0377
     56 H19         6.0501   23.6495  -13.1145 H           1 GYN       0.0377
     57 H20         8.2711   25.3918  -10.0564 H           1 GYN       0.0742
     58 H21         6.8531   24.9619   -8.4933 H           1 GYN       0.2129
     59 H22         7.4688   22.4432  -10.3280 H           1 GYN       0.0312
     60 H23         8.1402   23.1647   -8.8927 H           1 GYN       0.0312
     61 H24         9.9233   22.0950   -9.9850 H           1 GYN       0.0293
     62 H25        10.1880   23.8278  -10.1368 H           1 GYN       0.0293
     63 H26         9.4577   23.7744  -12.4882 H           1 GYN       0.0598
     64 H27        11.5528   21.6823  -11.7540 H           1 GYN       0.0295
     65 H28        11.8161   23.2901  -12.4729 H           1 GYN       0.0295
     66 H29        10.9400   22.6561  -14.5538 H           1 GYN       0.0345
     67 H30        11.7813   20.4292  -15.2434 H           1 GYN       0.0235
     68 H31        11.9926   19.9612  -13.5428 H           1 GYN       0.0235
     69 H32        12.9739   21.2683  -14.2357 H           1 GYN       0.0235
     70 H33         9.5091   20.1781  -13.5572 H           1 GYN       0.0747
     71 H34         7.6940   20.2807  -16.3063 H           1 GYN       0.0376
     72 H35         9.2758   19.6842  -15.8114 H           1 GYN       0.0376
     73 H36         9.1789   21.0514  -16.9153 H           1 GYN       0.0376
     74 H37         8.0115   23.2859  -14.2410 H           1 GYN       0.0245
     75 H38         6.6101   22.6977  -16.5854 H           1 GYN       0.0369
     76 H39         8.2067   23.3131  -17.0294 H           1 GYN       0.0369
     77 H40         6.0244   24.7211  -15.4797 H           1 GYN       0.0520
     78 H41         6.7132   25.1896  -17.0174 H           1 GYN       0.0520
     79 H42        10.7592   26.5947  -15.9363 H           1 GYN       0.0507
     80 H43        10.9851   25.2946  -14.7601 H           1 GYN       0.0507
     81 H44        10.8647   27.7186  -13.8109 H           1 GYN       0.0277
     82 H45         9.8926   26.4816  -13.0172 H           1 GYN       0.0277
     83 H46         8.5122   28.5101  -13.4226 H           1 GYN       0.0210
     84 H47         9.0073   28.5112  -15.1024 H           1 GYN       0.0210
@<TRIPOS>BOND
     1     1     2   2
     2     2     3   1
     3     2     6   1
     4     3     4   1
     5     4     5   1
     6     4     8   1
     7     5     6   1
     8     6     7   1
     9     8     9   2
    10     8    14   1
    11     9    10   1
    12     9    11   1
    13    11    12   1
    14    11    15   1
    15    12    13   1
    16    12    33   1
    17    12    37   1
    18    13    14   1
    19    15    16   2
    20    16    17   1
    21    16    18   1
    22    18    19   1
    23    18    20   1
    24    20    21   1
    25    21    22   1
    26    22    23   1
    27    22    26   1
    28    23    24   1
    29    24    25   1
    30    24    27   1
    31    26    27   1
    32    27    28   1
    33    28    29   1
    34    28    30   2
    35    30    31   1
    36    31    32   1
    37    32    33   1
    38    33    34   2
    39    34    35   1
    40    35    36   1
    41    36    37   1
    42     4    38   1
    43     5    39   1
    44     5    40   1
    45     6    41   1
    46     7    42   1
    47     7    43   1
    48     7    44   1
    49    10    45   1
    50    10    46   1
    51    10    47   1
    52    11    48   1
    53    13    49   1
    54    13    50   1
    55    14    51   1
    56    14    52   1
    57    15    53   1
    58    17    54   1
    59    17    55   1
    60    17    56   1
    61    18    57   1
    62    19    58   1
    63    20    59   1
    64    20    60   1
    65    21    61   1
    66    21    62   1
    67    22    63   1
    68    23    64   1
    69    23    65   1
    70    24    66   1
    71    25    67   1
    72    25    68   1
    73    25    69   1
    74    27    70   1
    75    29    71   1
    76    29    72   1
    77    29    73   1
    78    30    74   1
    79    31    75   1
    80    31    76   1
    81    32    77   1
    82    32    78   1
    83    35    79   1
    84    35    80   1
    85    36    81   1
    86    36    82   1
    87    37    83   1
    88    37    84   1
@<TRIPOS>SUBSTRUCTURE
     1  GYN      2

