@<TRIPOS>MOLECULE
2x00_ligand_086
    84    88
SMALL
GAST_HUCK
****
This file was generated by PARSER (from files_GN.cpp)

@<TRIPOS>ATOM
      1 O6          6.5665   25.8844    0.0665 O.2         1 GYN      -0.3700
      2 C5          6.3036   26.0372   -1.2497 C.2         1 GYN       0.2385
      3 O1          5.4127   26.9315   -1.7186 O.3         1 GYN      -0.2655
      4 C2          5.2773   26.9255   -3.1445 C.3         1 GYN       0.1059
      5 C3          6.3676   25.9018   -3.5851 C.3         1 GYN       0.0041
      6 C4          7.0006   25.3093   -2.3035 C.3         1 GYN       0.0613
      7 C7          6.8229   23.7741   -2.1996 C.3         1 GYN      -0.0438
      8 C8          3.8932   26.6639   -3.6263 C.2         1 GYN      -0.0559
      9 C13         3.5119   26.8148   -4.9266 C.2         1 GYN      -0.0876
     10 C14         4.5427   26.8437   -5.9914 C.3         1 GYN      -0.0498
     11 C12         2.0719   26.8386   -5.3599 C.3         1 GYN      -0.0250
     12 C27         0.9989   26.9187   -4.1665 C.3         1 GYN       0.0148
     13 C10         1.5141   25.9181   -3.0768 C.3         1 GYN      -0.0494
     14 C9          2.9266   26.2775   -2.5822 C.3         1 GYN      -0.0395
     15 C15         1.8757   27.8966   -6.3780 C.2         1 GYN      -0.1023
     16 C16         1.7276   27.7885   -7.7251 C.2         1 GYN      -0.0548
     17 C19         1.5472   26.4863   -8.3758 C.3         1 GYN      -0.0377
     18 C17         1.9770   28.9821   -8.5699 C.3         1 GYN       0.0804
     19 O20         3.1930   28.7325   -9.2782 O.3         1 GYN      -0.3807
     20 C18         0.8685   29.4082   -9.5841 C.3         1 GYN      -0.0158
     21 C21        -0.3786   30.1264   -8.9909 C.3         1 GYN      -0.0223
     22 C43        -1.3196   29.2299   -8.1459 C.3         1 GYN       0.0623
     23 C47        -2.6165   29.9156   -7.6545 C.3         1 GYN      -0.0197
     24 C48        -3.7656   29.0580   -8.2287 C.3         1 GYN      -0.0066
     25 C49        -4.4539   29.7303   -9.4481 C.3         1 GYN      -0.0582
     26 O43        -1.7086   28.0757   -8.9094 O.3         1 GYN      -0.3622
     27 C37        -3.0693   27.7173   -8.5994 C.3         1 GYN       0.0865
     28 C36        -3.2173   26.6400   -7.5946 C.2         1 GYN      -0.0553
     29 C38        -4.5173   25.9857   -7.4494 C.3         1 GYN      -0.0379
     30 C35        -2.1508   26.2249   -6.8807 C.2         1 GYN      -0.1039
     31 C34        -2.0549   25.1241   -5.9357 C.3         1 GYN      -0.0315
     32 C33        -0.7290   25.1707   -5.1080 C.3         1 GYN       0.0100
     33 C32        -0.3923   26.4620   -4.4760 C.2         1 GYN       0.0383
     34 N31        -1.4038   27.0203   -3.8938 N.2         1 GYN      -0.2722
     35 C30        -1.4961   28.1098   -3.0269 C.3         1 GYN       0.0432
     36 C46        -0.1289   28.5917   -2.4895 C.3         1 GYN      -0.0375
     37 C28         0.9259   28.4032   -3.5999 C.3         1 GYN      -0.0530
     38 H1          5.5614   27.9344   -3.4618 H           1 GYN       0.0753
     39 H2          7.1292   26.4058   -4.1871 H           1 GYN       0.0338
     40 H3          5.9487   25.0851   -4.1723 H           1 GYN       0.0338
     41 H4          8.0619   25.5638   -2.2567 H           1 GYN       0.0553
     42 H5          7.1954   23.4280   -1.2402 H           1 GYN       0.0258
     43 H6          7.3897   23.2791   -2.9909 H           1 GYN       0.0258
     44 H7          5.7737   23.4836   -2.2930 H           1 GYN       0.0258
     45 H8          5.1258   25.9218   -5.9940 H           1 GYN       0.0329
     46 H9          5.2021   27.6976   -5.8443 H           1 GYN       0.0329
     47 H10         4.1517   26.9099   -7.0005 H           1 GYN       0.0329
     48 H11         1.9601   25.8682   -5.8343 H           1 GYN       0.0417
     49 H12         1.5598   24.9055   -3.4908 H           1 GYN       0.0226
     50 H13         0.8423   25.8740   -2.2145 H           1 GYN       0.0226
     51 H14         2.8411   27.0896   -1.8558 H           1 GYN       0.0362
     52 H15         3.3116   25.4042   -2.0500 H           1 GYN       0.0362
     53 H16         2.0704   28.8092   -6.0396 H           1 GYN       0.0252
     54 H17         2.3906   25.8275   -8.1670 H           1 GYN       0.0377
     55 H18         1.4732   26.5638   -9.4603 H           1 GYN       0.0377
     56 H19         0.6399   26.0031   -8.0216 H           1 GYN       0.0377
     57 H20         2.1860   29.8692   -7.9635 H           1 GYN       0.0742
     58 H21         3.4569   29.5953   -9.6632 H           1 GYN       0.2129
     59 H22         0.5505   28.5587  -10.1878 H           1 GYN       0.0312
     60 H23         1.3260   30.1202  -10.2784 H           1 GYN       0.0312
     61 H24        -0.9572   30.5339   -9.8249 H           1 GYN       0.0293
     62 H25        -0.0473   30.9695   -8.3794 H           1 GYN       0.0293
     63 H26        -0.7596   28.9065   -7.2670 H           1 GYN       0.0598
     64 H27        -2.6783   30.9608   -7.9698 H           1 GYN       0.0295
     65 H28        -2.6536   29.8957   -6.5604 H           1 GYN       0.0295
     66 H29        -4.5318   28.9100   -7.4604 H           1 GYN       0.0345
     67 H30        -5.2454   29.0846   -9.8339 H           1 GYN       0.0235
     68 H31        -3.7335   29.9179  -10.2470 H           1 GYN       0.0235
     69 H32        -4.9036   30.6793   -9.1492 H           1 GYN       0.0235
     70 H33        -3.4773   27.3202   -9.5333 H           1 GYN       0.0747
     71 H34        -4.4316   24.9206   -7.6778 H           1 GYN       0.0376
     72 H35        -5.2690   26.4064   -8.1210 H           1 GYN       0.0376
     73 H36        -4.8842   26.1028   -6.4279 H           1 GYN       0.0376
     74 H37        -1.3080   26.7140   -7.0126 H           1 GYN       0.0245
     75 H38        -2.0996   24.1836   -6.4913 H           1 GYN       0.0369
     76 H39        -2.8988   25.1388   -5.2453 H           1 GYN       0.0369
     77 H40         0.0645   24.8357   -5.7708 H           1 GYN       0.0520
     78 H41        -0.8019   24.4218   -4.3185 H           1 GYN       0.0520
     79 H42        -2.1372   27.8337   -2.1872 H           1 GYN       0.0507
     80 H43        -1.9821   28.9253   -3.5677 H           1 GYN       0.0507
     81 H44         0.1508   28.0262   -1.5989 H           1 GYN       0.0277
     82 H45        -0.1923   29.6470   -2.2061 H           1 GYN       0.0277
     83 H46         0.6171   29.0908   -4.3918 H           1 GYN       0.0210
     84 H47         1.8956   28.7559   -3.2434 H           1 GYN       0.0210
@<TRIPOS>BOND
     1     1     2   2
     2     2     3   1
     3     2     6   1
     4     3     4   1
     5     4     5   1
     6     4     8   1
     7     5     6   1
     8     6     7   1
     9     8     9   2
    10     8    14   1
    11     9    10   1
    12     9    11   1
    13    11    12   1
    14    11    15   1
    15    12    13   1
    16    12    33   1
    17    12    37   1
    18    13    14   1
    19    15    16   2
    20    16    17   1
    21    16    18   1
    22    18    19   1
    23    18    20   1
    24    20    21   1
    25    21    22   1
    26    22    23   1
    27    22    26   1
    28    23    24   1
    29    24    25   1
    30    24    27   1
    31    26    27   1
    32    27    28   1
    33    28    29   1
    34    28    30   2
    35    30    31   1
    36    31    32   1
    37    32    33   1
    38    33    34   2
    39    34    35   1
    40    35    36   1
    41    36    37   1
    42     4    38   1
    43     5    39   1
    44     5    40   1
    45     6    41   1
    46     7    42   1
    47     7    43   1
    48     7    44   1
    49    10    45   1
    50    10    46   1
    51    10    47   1
    52    11    48   1
    53    13    49   1
    54    13    50   1
    55    14    51   1
    56    14    52   1
    57    15    53   1
    58    17    54   1
    59    17    55   1
    60    17    56   1
    61    18    57   1
    62    19    58   1
    63    20    59   1
    64    20    60   1
    65    21    61   1
    66    21    62   1
    67    22    63   1
    68    23    64   1
    69    23    65   1
    70    24    66   1
    71    25    67   1
    72    25    68   1
    73    25    69   1
    74    27    70   1
    75    29    71   1
    76    29    72   1
    77    29    73   1
    78    30    74   1
    79    31    75   1
    80    31    76   1
    81    32    77   1
    82    32    78   1
    83    35    79   1
    84    35    80   1
    85    36    81   1
    86    36    82   1
    87    37    83   1
    88    37    84   1
@<TRIPOS>SUBSTRUCTURE
     1  GYN      2

