@<TRIPOS>MOLECULE
2x00_ligand_045
    84    88
SMALL
GAST_HUCK
****
This file was generated by PARSER (from files_GN.cpp)

@<TRIPOS>ATOM
      1 O6          3.6793   24.7018   -9.4274 O.2         1 GYN      -0.3700
      2 C5          4.9615   25.0750   -9.6295 C.2         1 GYN       0.2385
      3 O1          5.4072   25.4723  -10.8342 O.3         1 GYN      -0.2655
      4 C2          6.7635   25.9116  -10.8184 C.3         1 GYN       0.1059
      5 C3          7.2141   25.6984   -9.3428 C.3         1 GYN       0.0041
      6 C4          5.9703   25.1693   -8.5760 C.3         1 GYN       0.0613
      7 C7          6.1783   23.8080   -7.8696 C.3         1 GYN      -0.0438
      8 C8          7.5884   25.2419  -11.8557 C.2         1 GYN      -0.0559
      9 C13         8.4577   25.9058  -12.6752 C.2         1 GYN      -0.0876
     10 C14         8.9326   27.2472  -12.2762 C.3         1 GYN      -0.0498
     11 C12         9.0885   25.2738  -13.8846 C.3         1 GYN      -0.0250
     12 C27         8.5447   23.8086  -14.2587 C.3         1 GYN       0.0148
     13 C10         8.4016   23.0625  -12.8859 C.3         1 GYN      -0.0494
     14 C9          7.4236   23.7828  -11.9344 C.3         1 GYN      -0.0395
     15 C15         9.0378   26.2405  -15.0133 C.2         1 GYN      -0.1023
     16 C16        10.0308   26.9980  -15.5487 C.2         1 GYN      -0.0548
     17 C19        11.4381   26.7380  -15.2385 C.3         1 GYN      -0.0377
     18 C17         9.6915   28.2279  -16.3073 C.3         1 GYN       0.0804
     19 O20        10.0800   29.3457  -15.5014 O.3         1 GYN      -0.3807
     20 C18        10.2851   28.4167  -17.7417 C.3         1 GYN      -0.0158
     21 C21         9.5886   27.6574  -18.9068 C.3         1 GYN      -0.0223
     22 C43         9.8136   26.1261  -18.9070 C.3         1 GYN       0.0623
     23 C47         9.2681   25.4013  -20.1503 C.3         1 GYN      -0.0197
     24 C48        10.0455   24.0755  -20.1019 C.3         1 GYN      -0.0066
     25 C49        10.1633   23.3755  -21.4791 C.3         1 GYN      -0.0582
     26 O43        11.2135   25.8031  -18.8789 O.3         1 GYN      -0.3622
     27 C37        11.4045   24.5018  -19.4700 C.3         1 GYN       0.0865
     28 C36        11.9421   23.5286  -18.4985 C.2         1 GYN      -0.0553
     29 C38        13.0240   22.6261  -18.8882 C.3         1 GYN      -0.0379
     30 C35        11.3902   23.4651  -17.2664 C.2         1 GYN      -0.1039
     31 C34        11.6863   22.5074  -16.2097 C.3         1 GYN      -0.0315
     32 C33        10.8565   22.7097  -14.8992 C.3         1 GYN       0.0100
     33 C32         9.4137   22.9056  -15.0810 C.2         1 GYN       0.0383
     34 N31         8.8878   21.9984  -15.8417 N.2         1 GYN      -0.2722
     35 C30         7.5660   21.7283  -16.1790 C.3         1 GYN       0.0432
     36 C46         6.5351   22.5603  -15.3796 C.3         1 GYN      -0.0375
     37 C28         7.1504   23.9270  -15.0032 C.3         1 GYN      -0.0530
     38 H1          6.6832   26.9839  -11.0024 H           1 GYN       0.0753
     39 H2          7.5325   26.6521   -8.9158 H           1 GYN       0.0338
     40 H3          8.0622   25.0106   -9.2656 H           1 GYN       0.0338
     41 H4          5.6424   25.9116   -7.8426 H           1 GYN       0.0553
     42 H5          5.2637   23.5133   -7.3515 H           1 GYN       0.0258
     43 H6          6.9803   23.8903   -7.1344 H           1 GYN       0.0258
     44 H7          6.4383   23.0298   -8.5904 H           1 GYN       0.0258
     45 H8          9.1978   27.2691  -11.2167 H           1 GYN       0.0329
     46 H9          8.1592   27.9931  -12.4705 H           1 GYN       0.0329
     47 H10         9.8239   27.5617  -12.8116 H           1 GYN       0.0329
     48 H11        10.1196   25.1550  -13.5682 H           1 GYN       0.0417
     49 H12         9.3770   23.0191  -12.3894 H           1 GYN       0.0226
     50 H13         8.0672   22.0274  -13.0090 H           1 GYN       0.0226
     51 H14         6.4007   23.5540  -12.2430 H           1 GYN       0.0362
     52 H15         7.5612   23.3407  -10.9446 H           1 GYN       0.0362
     53 H16         8.1145   26.4827  -15.2888 H           1 GYN       0.0252
     54 H17        11.6254   26.8011  -14.1665 H           1 GYN       0.0377
     55 H18        12.1188   27.4436  -15.7134 H           1 GYN       0.0377
     56 H19        11.7096   25.7446  -15.5851 H           1 GYN       0.0377
     57 H20         8.6089   28.3418  -16.4124 H           1 GYN       0.0742
     58 H21        11.0535   29.4283  -15.5917 H           1 GYN       0.2129
     59 H22        11.3517   28.1884  -17.7539 H           1 GYN       0.0312
     60 H23        10.2009   29.4801  -17.9878 H           1 GYN       0.0312
     61 H24         9.9764   28.0601  -19.8479 H           1 GYN       0.0293
     62 H25         8.5144   27.8603  -18.8831 H           1 GYN       0.0293
     63 H26         9.3210   25.7156  -18.0215 H           1 GYN       0.0598
     64 H27         9.5062   25.9609  -21.0599 H           1 GYN       0.0295
     65 H28         8.1875   25.2450  -20.0914 H           1 GYN       0.0295
     66 H29         9.5086   23.3969  -19.4280 H           1 GYN       0.0345
     67 H30        10.7396   22.4545  -21.3785 H           1 GYN       0.0235
     68 H31        10.6611   24.0238  -22.2030 H           1 GYN       0.0235
     69 H32         9.1699   23.1261  -21.8562 H           1 GYN       0.0235
     70 H33        12.1307   24.6754  -20.2697 H           1 GYN       0.0747
     71 H34        13.8865   22.7772  -18.2366 H           1 GYN       0.0376
     72 H35        13.3543   22.7838  -19.9160 H           1 GYN       0.0376
     73 H36        12.6965   21.5881  -18.8075 H           1 GYN       0.0376
     74 H37        10.6750   24.1162  -17.0610 H           1 GYN       0.0245
     75 H38        12.7480   22.5660  -15.9573 H           1 GYN       0.0369
     76 H39        11.4894   21.5019  -16.5922 H           1 GYN       0.0369
     77 H40        11.3003   23.5350  -14.3549 H           1 GYN       0.0520
     78 H41        11.0001   21.8242  -14.2731 H           1 GYN       0.0520
     79 H42         7.3747   20.6643  -16.0227 H           1 GYN       0.0507
     80 H43         7.4537   21.9376  -17.2456 H           1 GYN       0.0507
     81 H44         6.2372   22.0319  -14.4739 H           1 GYN       0.0277
     82 H45         5.6388   22.7069  -15.9851 H           1 GYN       0.0277
     83 H46         7.2749   24.4652  -15.9466 H           1 GYN       0.0210
     84 H47         6.4308   24.4925  -14.4114 H           1 GYN       0.0210
@<TRIPOS>BOND
     1     1     2   2
     2     2     3   1
     3     2     6   1
     4     3     4   1
     5     4     5   1
     6     4     8   1
     7     5     6   1
     8     6     7   1
     9     8     9   2
    10     8    14   1
    11     9    10   1
    12     9    11   1
    13    11    12   1
    14    11    15   1
    15    12    13   1
    16    12    33   1
    17    12    37   1
    18    13    14   1
    19    15    16   2
    20    16    17   1
    21    16    18   1
    22    18    19   1
    23    18    20   1
    24    20    21   1
    25    21    22   1
    26    22    23   1
    27    22    26   1
    28    23    24   1
    29    24    25   1
    30    24    27   1
    31    26    27   1
    32    27    28   1
    33    28    29   1
    34    28    30   2
    35    30    31   1
    36    31    32   1
    37    32    33   1
    38    33    34   2
    39    34    35   1
    40    35    36   1
    41    36    37   1
    42     4    38   1
    43     5    39   1
    44     5    40   1
    45     6    41   1
    46     7    42   1
    47     7    43   1
    48     7    44   1
    49    10    45   1
    50    10    46   1
    51    10    47   1
    52    11    48   1
    53    13    49   1
    54    13    50   1
    55    14    51   1
    56    14    52   1
    57    15    53   1
    58    17    54   1
    59    17    55   1
    60    17    56   1
    61    18    57   1
    62    19    58   1
    63    20    59   1
    64    20    60   1
    65    21    61   1
    66    21    62   1
    67    22    63   1
    68    23    64   1
    69    23    65   1
    70    24    66   1
    71    25    67   1
    72    25    68   1
    73    25    69   1
    74    27    70   1
    75    29    71   1
    76    29    72   1
    77    29    73   1
    78    30    74   1
    79    31    75   1
    80    31    76   1
    81    32    77   1
    82    32    78   1
    83    35    79   1
    84    35    80   1
    85    36    81   1
    86    36    82   1
    87    37    83   1
    88    37    84   1
@<TRIPOS>SUBSTRUCTURE
     1  GYN      2

