@<TRIPOS>MOLECULE
2x00_ligand_071
    84    88
SMALL
GAST_HUCK
****
This file was generated by PARSER (from files_GN.cpp)

@<TRIPOS>ATOM
      1 O6          3.8568   29.5711   -9.0289 O.2         1 GYN      -0.3700
      2 C5          4.2775   28.2906   -8.9332 C.2         1 GYN       0.2385
      3 O1          5.5774   27.9440   -8.9471 O.3         1 GYN      -0.2655
      4 C2          5.8349   26.5498   -8.7690 C.3         1 GYN       0.1059
      5 C3          4.3802   25.9709   -8.7450 C.3         1 GYN       0.0041
      6 C4          3.3846   27.1617   -8.7203 C.3         1 GYN       0.0613
      7 C7          2.2702   27.0906   -9.7976 C.3         1 GYN      -0.0438
      8 C8          6.7875   25.9217   -9.7292 C.2         1 GYN      -0.0559
      9 C13         7.6608   26.6058  -10.5226 C.2         1 GYN      -0.0876
     10 C14         8.1347   27.9416  -10.1090 C.3         1 GYN      -0.0498
     11 C12         8.3455   25.9800  -11.7068 C.3         1 GYN      -0.0250
     12 C27         7.8981   24.4743  -12.0258 C.3         1 GYN       0.0148
     13 C10         7.8801   23.7736  -10.6181 C.3         1 GYN      -0.0494
     14 C9          6.8737   24.4491   -9.6564 C.3         1 GYN      -0.0395
     15 C15         8.2321   26.9143  -12.8534 C.2         1 GYN      -0.1023
     16 C16         9.1718   27.7372  -13.3905 C.2         1 GYN      -0.0548
     17 C19        10.6001   27.5705  -13.0999 C.3         1 GYN      -0.0377
     18 C17         8.7475   28.9412  -14.1439 C.3         1 GYN       0.0804
     19 O20         9.0876   30.0751  -13.3393 O.3         1 GYN      -0.3807
     20 C18         9.3424   29.1820  -15.5695 C.3         1 GYN      -0.0158
     21 C21         8.7388   28.3686  -16.7480 C.3         1 GYN      -0.0223
     22 C43         9.0554   26.8540  -16.7339 C.3         1 GYN       0.0623
     23 C47         8.5655   26.0920  -17.9792 C.3         1 GYN      -0.0197
     24 C48         9.4097   24.8081  -17.9080 C.3         1 GYN      -0.0066
     25 C49         9.5733   24.0770  -19.2630 C.3         1 GYN      -0.0582
     26 O43        10.4713   26.6090  -16.6898 O.3         1 GYN      -0.3622
     27 C37        10.7404   25.3222  -17.2832 C.3         1 GYN       0.0865
     28 C36        11.3303   24.3777  -16.3141 C.2         1 GYN      -0.0553
     29 C38        12.4735   23.5530  -16.6977 C.3         1 GYN      -0.0379
     30 C35        10.7610   24.2638  -15.0953 C.2         1 GYN      -0.1039
     31 C34        11.0794   23.3049  -14.0470 C.3         1 GYN      -0.0315
     32 C33        10.2584   23.5166  -12.7293 C.3         1 GYN       0.0100
     33 C32         8.8016   23.6328  -12.8812 C.2         1 GYN       0.0383
     34 N31         8.3177   22.7231  -13.6631 N.2         1 GYN      -0.2722
     35 C30         7.0086   22.3828  -13.9842 C.3         1 GYN       0.0432
     36 C46         5.9634   23.0565  -13.0647 C.3         1 GYN      -0.0375
     37 C28         6.4601   24.4723  -12.7003 C.3         1 GYN      -0.0530
     38 H1          6.2692   26.4410   -7.7716 H           1 GYN       0.0753
     39 H2          4.2377   25.3353   -7.8630 H           1 GYN       0.0338
     40 H3          4.1769   25.3623   -9.6279 H           1 GYN       0.0338
     41 H4          2.9270   27.2526   -7.7312 H           1 GYN       0.0553
     42 H5          1.5758   27.9260   -9.6825 H           1 GYN       0.0258
     43 H6          1.7063   26.1591   -9.6986 H           1 GYN       0.0258
     44 H7          2.6978   27.1353  -10.8026 H           1 GYN       0.0258
     45 H8          8.2092   28.0242   -9.0225 H           1 GYN       0.0329
     46 H9          7.4629   28.7127  -10.4874 H           1 GYN       0.0329
     47 H10         9.1304   28.1657  -10.4893 H           1 GYN       0.0329
     48 H11         9.3846   25.9273  -11.3926 H           1 GYN       0.0417
     49 H12         8.8740   23.8316  -10.1600 H           1 GYN       0.0226
     50 H13         7.6379   22.7091  -10.6937 H           1 GYN       0.0226
     51 H14         5.9040   24.0010   -9.8717 H           1 GYN       0.0362
     52 H15         7.1325   24.1589   -8.6337 H           1 GYN       0.0362
     53 H16         7.2951   27.0901  -13.1348 H           1 GYN       0.0252
     54 H17        10.7990   27.5968  -12.0304 H           1 GYN       0.0377
     55 H18        11.2170   28.3526  -13.5416 H           1 GYN       0.0377
     56 H19        10.9433   26.6217  -13.5002 H           1 GYN       0.0377
     57 H20         7.6590   28.9893  -14.2551 H           1 GYN       0.0742
     58 H21         8.5236   30.0139  -12.5386 H           1 GYN       0.2129
     59 H22        10.4248   29.0517  -15.5653 H           1 GYN       0.0312
     60 H23         9.1650   30.2336  -15.8151 H           1 GYN       0.0312
     61 H24         9.1363   28.7900  -17.6758 H           1 GYN       0.0293
     62 H25         7.6545   28.5075  -16.7634 H           1 GYN       0.0293
     63 H26         8.5790   26.4189  -15.8512 H           1 GYN       0.0598
     64 H27         8.7889   26.6542  -18.8908 H           1 GYN       0.0295
     65 H28         7.4937   25.8809  -17.9332 H           1 GYN       0.0295
     66 H29         8.9052   24.1180  -17.2208 H           1 GYN       0.0345
     67 H30        10.1980   23.1906  -19.1337 H           1 GYN       0.0235
     68 H31        10.0374   24.7279  -20.0067 H           1 GYN       0.0235
     69 H32         8.5976   23.7605  -19.6345 H           1 GYN       0.0235
     70 H33        11.4514   25.5370  -18.0863 H           1 GYN       0.0747
     71 H34        13.3211   23.7667  -16.0436 H           1 GYN       0.0376
     72 H35        12.7952   23.7298  -17.7253 H           1 GYN       0.0376
     73 H36        12.2186   22.4948  -16.6144 H           1 GYN       0.0376
     74 H37        10.0061   24.8714  -14.8963 H           1 GYN       0.0245
     75 H38        12.1426   23.3695  -13.8042 H           1 GYN       0.0369
     76 H39        10.8874   22.2982  -14.4273 H           1 GYN       0.0369
     77 H40        10.6617   24.3948  -12.2402 H           1 GYN       0.0520
     78 H41        10.4642   22.6708  -12.0681 H           1 GYN       0.0520
     79 H42         6.9094   21.2981  -13.9255 H           1 GYN       0.0507
     80 H43         6.8350   22.6798  -15.0212 H           1 GYN       0.0507
     81 H44         5.8206   22.4705  -12.1555 H           1 GYN       0.0277
     82 H45         5.0006   23.1090  -13.5765 H           1 GYN       0.0277
     83 H46         6.4892   25.0272  -13.6419 H           1 GYN       0.0210
     84 H47         5.7134   24.9605  -12.0741 H           1 GYN       0.0210
@<TRIPOS>BOND
     1     1     2   2
     2     2     3   1
     3     2     6   1
     4     3     4   1
     5     4     5   1
     6     4     8   1
     7     5     6   1
     8     6     7   1
     9     8     9   2
    10     8    14   1
    11     9    10   1
    12     9    11   1
    13    11    12   1
    14    11    15   1
    15    12    13   1
    16    12    33   1
    17    12    37   1
    18    13    14   1
    19    15    16   2
    20    16    17   1
    21    16    18   1
    22    18    19   1
    23    18    20   1
    24    20    21   1
    25    21    22   1
    26    22    23   1
    27    22    26   1
    28    23    24   1
    29    24    25   1
    30    24    27   1
    31    26    27   1
    32    27    28   1
    33    28    29   1
    34    28    30   2
    35    30    31   1
    36    31    32   1
    37    32    33   1
    38    33    34   2
    39    34    35   1
    40    35    36   1
    41    36    37   1
    42     4    38   1
    43     5    39   1
    44     5    40   1
    45     6    41   1
    46     7    42   1
    47     7    43   1
    48     7    44   1
    49    10    45   1
    50    10    46   1
    51    10    47   1
    52    11    48   1
    53    13    49   1
    54    13    50   1
    55    14    51   1
    56    14    52   1
    57    15    53   1
    58    17    54   1
    59    17    55   1
    60    17    56   1
    61    18    57   1
    62    19    58   1
    63    20    59   1
    64    20    60   1
    65    21    61   1
    66    21    62   1
    67    22    63   1
    68    23    64   1
    69    23    65   1
    70    24    66   1
    71    25    67   1
    72    25    68   1
    73    25    69   1
    74    27    70   1
    75    29    71   1
    76    29    72   1
    77    29    73   1
    78    30    74   1
    79    31    75   1
    80    31    76   1
    81    32    77   1
    82    32    78   1
    83    35    79   1
    84    35    80   1
    85    36    81   1
    86    36    82   1
    87    37    83   1
    88    37    84   1
@<TRIPOS>SUBSTRUCTURE
     1  GYN      2

