@<TRIPOS>MOLECULE
2x00_ligand_079
    84    88
SMALL
GAST_HUCK
****
This file was generated by PARSER (from files_GN.cpp)

@<TRIPOS>ATOM
      1 O6          9.7714   27.5116  -10.4224 O.2         1 GYN      -0.3700
      2 C5          9.0740   26.4810   -9.8961 C.2         1 GYN       0.2385
      3 O1          7.8058   26.2249  -10.2359 O.3         1 GYN      -0.2655
      4 C2          7.2249   25.0742   -9.6166 C.3         1 GYN       0.1059
      5 C3          8.4606   24.4985   -8.8366 C.3         1 GYN       0.0041
      6 C4          9.6362   25.5018   -8.9808 C.3         1 GYN       0.0613
      7 C7         10.1097   26.1527   -7.6574 C.3         1 GYN      -0.0438
      8 C8          5.9561   25.3892   -8.8996 C.2         1 GYN      -0.0559
      9 C13         4.9995   26.2279   -9.4055 C.2         1 GYN      -0.0876
     10 C14         5.1011   26.7056  -10.8020 C.3         1 GYN      -0.0498
     11 C12         3.7613   26.6073   -8.6390 C.3         1 GYN      -0.0250
     12 C27         3.7505   26.1878   -7.0935 C.3         1 GYN       0.0148
     13 C10         4.2761   24.7105   -7.0796 C.3         1 GYN      -0.0494
     14 C9          5.6827   24.5938   -7.6915 C.3         1 GYN      -0.0395
     15 C15         3.4646   28.0452   -8.8366 C.2         1 GYN      -0.1023
     16 C16         2.4624   28.6421   -9.5359 C.2         1 GYN      -0.0548
     17 C19         1.3770   27.8663  -10.1375 C.3         1 GYN      -0.0377
     18 C17         2.5258   30.0949   -9.8163 C.3         1 GYN       0.0804
     19 O20         2.6784   30.2791  -11.2265 O.3         1 GYN      -0.3807
     20 C18         1.3326   30.9610   -9.2958 C.3         1 GYN      -0.0158
     21 C21         1.4262   31.4065   -7.8093 C.3         1 GYN      -0.0223
     22 C43         1.0323   30.3304   -6.7633 C.3         1 GYN       0.0623
     23 C47         1.2892   30.7793   -5.3082 C.3         1 GYN      -0.0197
     24 C48        -0.0189   30.4372   -4.5630 C.3         1 GYN      -0.0066
     25 C49        -0.8252   31.6969   -4.1446 C.3         1 GYN      -0.0582
     26 O43        -0.3734   30.0421   -6.8479 O.3         1 GYN      -0.3622
     27 C37        -0.8173   29.5503   -5.5689 C.3         1 GYN       0.0865
     28 C36        -0.7076   28.0902   -5.3602 C.2         1 GYN      -0.0553
     29 C38        -1.0366   27.5601   -4.0346 C.3         1 GYN      -0.0379
     30 C35        -0.4135   27.2607   -6.3910 C.2         1 GYN      -0.1039
     31 C34        -0.1505   25.8259   -6.3421 C.3         1 GYN      -0.0315
     32 C33         1.2463   25.4376   -6.9165 C.3         1 GYN       0.0100
     33 C32         2.4195   26.1578   -6.4034 C.2         1 GYN       0.0383
     34 N31         2.3282   26.4325   -5.1420 N.2         1 GYN      -0.2722
     35 C30         3.2629   26.8872   -4.2162 C.3         1 GYN       0.0432
     36 C46         4.7167   26.8317   -4.7405 C.3         1 GYN      -0.0375
     37 C28         4.7071   27.1371   -6.2550 C.3         1 GYN      -0.0530
     38 H1          6.9799   24.3749  -10.4149 H           1 GYN       0.0753
     39 H2          8.7352   23.5260   -9.2601 H           1 GYN       0.0338
     40 H3          8.2768   24.3222   -7.7708 H           1 GYN       0.0338
     41 H4         10.4734   24.9982   -9.4550 H           1 GYN       0.0553
     42 H5         10.9545   26.8086   -7.8596 H           1 GYN       0.0258
     43 H6         10.4464   25.3889   -6.9574 H           1 GYN       0.0258
     44 H7          9.3080   26.7308   -7.1934 H           1 GYN       0.0258
     45 H8          4.1482   27.0352  -11.2106 H           1 GYN       0.0329
     46 H9          5.4572   25.9234  -11.4744 H           1 GYN       0.0329
     47 H10         5.7793   27.5585  -10.8486 H           1 GYN       0.0329
     48 H11         2.9935   26.0201   -9.1338 H           1 GYN       0.0417
     49 H12         3.6155   24.0744   -7.6705 H           1 GYN       0.0226
     50 H13         4.2977   24.2905   -6.0662 H           1 GYN       0.0226
     51 H14         6.3742   24.8911   -6.9028 H           1 GYN       0.0362
     52 H15         5.8556   23.5351   -7.9126 H           1 GYN       0.0362
     53 H16         4.1872   28.6484   -8.5213 H           1 GYN       0.0252
     54 H17         1.7684   27.1287  -10.8387 H           1 GYN       0.0377
     55 H18         0.6718   28.4838  -10.6952 H           1 GYN       0.0377
     56 H19         0.8092   27.3554   -9.3652 H           1 GYN       0.0377
     57 H20         3.4358   30.5411   -9.4042 H           1 GYN       0.0742
     58 H21         1.8467   29.9736  -11.6409 H           1 GYN       0.2129
     59 H22         0.3768   30.4627   -9.4673 H           1 GYN       0.0312
     60 H23         1.3132   31.8791   -9.8907 H           1 GYN       0.0312
     61 H24         0.7618   32.2657   -7.6688 H           1 GYN       0.0293
     62 H25         2.4425   31.7535   -7.6054 H           1 GYN       0.0293
     63 H26         1.5956   29.4141   -6.9566 H           1 GYN       0.0598
     64 H27         1.5275   31.8447   -5.2358 H           1 GYN       0.0295
     65 H28         2.1315   30.2217   -4.8899 H           1 GYN       0.0295
     66 H29         0.2362   29.9023   -3.6436 H           1 GYN       0.0345
     67 H30        -1.7141   31.4025   -3.5817 H           1 GYN       0.0235
     68 H31        -1.1352   32.2729   -5.0192 H           1 GYN       0.0235
     69 H32        -0.2157   32.3362   -3.5075 H           1 GYN       0.0235
     70 H33        -1.8864   29.7739   -5.5085 H           1 GYN       0.0747
     71 H34        -1.7370   26.7296   -4.1093 H           1 GYN       0.0376
     72 H35        -1.5105   28.3070   -3.3937 H           1 GYN       0.0376
     73 H36        -0.1289   27.2118   -3.5389 H           1 GYN       0.0376
     74 H37        -0.3615   27.6532   -7.2997 H           1 GYN       0.0245
     75 H38        -0.9215   25.3215   -6.9308 H           1 GYN       0.0369
     76 H39        -0.2203   25.4235   -5.3297 H           1 GYN       0.0369
     77 H40         1.1838   25.5131   -7.9969 H           1 GYN       0.0520
     78 H41         1.3952   24.3813   -6.6887 H           1 GYN       0.0520
     79 H42         3.1814   26.2794   -3.3131 H           1 GYN       0.0507
     80 H43         3.0018   27.9148   -3.9561 H           1 GYN       0.0507
     81 H44         5.1486   25.8452   -4.5539 H           1 GYN       0.0277
     82 H45         5.3316   27.5656   -4.2117 H           1 GYN       0.0277
     83 H46         4.3568   28.1664   -6.3346 H           1 GYN       0.0210
     84 H47         5.7273   27.1156   -6.6324 H           1 GYN       0.0210
@<TRIPOS>BOND
     1     1     2   2
     2     2     3   1
     3     2     6   1
     4     3     4   1
     5     4     5   1
     6     4     8   1
     7     5     6   1
     8     6     7   1
     9     8     9   2
    10     8    14   1
    11     9    10   1
    12     9    11   1
    13    11    12   1
    14    11    15   1
    15    12    13   1
    16    12    33   1
    17    12    37   1
    18    13    14   1
    19    15    16   2
    20    16    17   1
    21    16    18   1
    22    18    19   1
    23    18    20   1
    24    20    21   1
    25    21    22   1
    26    22    23   1
    27    22    26   1
    28    23    24   1
    29    24    25   1
    30    24    27   1
    31    26    27   1
    32    27    28   1
    33    28    29   1
    34    28    30   2
    35    30    31   1
    36    31    32   1
    37    32    33   1
    38    33    34   2
    39    34    35   1
    40    35    36   1
    41    36    37   1
    42     4    38   1
    43     5    39   1
    44     5    40   1
    45     6    41   1
    46     7    42   1
    47     7    43   1
    48     7    44   1
    49    10    45   1
    50    10    46   1
    51    10    47   1
    52    11    48   1
    53    13    49   1
    54    13    50   1
    55    14    51   1
    56    14    52   1
    57    15    53   1
    58    17    54   1
    59    17    55   1
    60    17    56   1
    61    18    57   1
    62    19    58   1
    63    20    59   1
    64    20    60   1
    65    21    61   1
    66    21    62   1
    67    22    63   1
    68    23    64   1
    69    23    65   1
    70    24    66   1
    71    25    67   1
    72    25    68   1
    73    25    69   1
    74    27    70   1
    75    29    71   1
    76    29    72   1
    77    29    73   1
    78    30    74   1
    79    31    75   1
    80    31    76   1
    81    32    77   1
    82    32    78   1
    83    35    79   1
    84    35    80   1
    85    36    81   1
    86    36    82   1
    87    37    83   1
    88    37    84   1
@<TRIPOS>SUBSTRUCTURE
     1  GYN      2

