@<TRIPOS>MOLECULE
2x00_ligand_060
    84    88
SMALL
GAST_HUCK
****
This file was generated by PARSER (from files_GN.cpp)

@<TRIPOS>ATOM
      1 O6          5.8040   30.6983  -10.2115 O.2         1 GYN      -0.3700
      2 C5          5.5097   29.5981  -10.9340 C.2         1 GYN       0.2385
      3 O1          5.9788   28.3811  -10.6080 O.3         1 GYN      -0.2655
      4 C2          5.5325   27.3567  -11.4949 C.3         1 GYN       0.1059
      5 C3          4.7622   28.1270  -12.6056 C.3         1 GYN       0.0041
      6 C4          4.6240   29.5900  -12.0995 C.3         1 GYN       0.0613
      7 C7          4.9910   30.6462  -13.1693 C.3         1 GYN      -0.0438
      8 C8          6.6015   26.4436  -11.9877 C.2         1 GYN      -0.0559
      9 C13         7.6676   26.8296  -12.7509 C.2         1 GYN      -0.0876
     10 C14         8.1512   28.2194  -12.6405 C.3         1 GYN      -0.0498
     11 C12         8.4784   25.8697  -13.5767 C.3         1 GYN      -0.0250
     12 C27         7.9733   24.3449  -13.5638 C.3         1 GYN       0.0148
     13 C10         7.5593   24.0771  -12.0750 C.3         1 GYN      -0.0494
     14 C9          6.4523   25.0400  -11.5919 C.3         1 GYN      -0.0395
     15 C15         8.6222   26.4381  -14.9385 C.2         1 GYN      -0.1023
     16 C16         9.6996   27.0178  -15.5305 C.2         1 GYN      -0.0548
     17 C19        11.0354   26.9361  -14.9296 C.3         1 GYN      -0.0377
     18 C17         9.4911   27.9265  -16.6862 C.3         1 GYN       0.0804
     19 O20         9.6852   29.2614  -16.2114 O.3         1 GYN      -0.3807
     20 C18        10.3545   27.7182  -17.9721 C.3         1 GYN      -0.0158
     21 C21         9.9197   26.5769  -18.9319 C.3         1 GYN      -0.0223
     22 C43        10.1311   25.1419  -18.3887 C.3         1 GYN       0.0623
     23 C47         9.8404   24.0275  -19.4110 C.3         1 GYN      -0.0197
     24 C48        10.5830   22.8328  -18.7899 C.3         1 GYN      -0.0066
     25 C49        10.9632   21.7299  -19.8124 C.3         1 GYN      -0.0582
     26 O43        11.4941   24.9250  -17.9861 O.3         1 GYN      -0.3622
     27 C37        11.7938   23.5169  -18.0875 C.3         1 GYN       0.0865
     28 C36        12.1279   22.9264  -16.7777 C.2         1 GYN      -0.0553
     29 C38        13.2581   22.0093  -16.6536 C.3         1 GYN      -0.0379
     30 C35        11.3428   23.2094  -15.7153 C.2         1 GYN      -0.1039
     31 C34        11.4076   22.6272  -14.3831 C.3         1 GYN      -0.0315
     32 C33        10.3447   23.1823  -13.3799 C.3         1 GYN       0.0100
     33 C32         8.9644   23.2677  -13.8876 C.2         1 GYN       0.0383
     34 N31         8.5895   22.1672  -14.4530 N.2         1 GYN      -0.2722
     35 C30         7.3600   21.7663  -14.9664 C.3         1 GYN       0.0432
     36 C46         6.2007   22.7243  -14.6114 C.3         1 GYN      -0.0375
     37 C28         6.7415   24.1700  -14.5507 C.3         1 GYN      -0.0530
     38 H1          4.7848   26.7995  -10.9151 H           1 GYN       0.0753
     39 H2          3.7711   27.6969  -12.7769 H           1 GYN       0.0338
     40 H3          5.3027   28.0924  -13.5534 H           1 GYN       0.0338
     41 H4          3.6004   29.7747  -11.7545 H           1 GYN       0.0553
     42 H5          4.9332   31.6529  -12.7481 H           1 GYN       0.0258
     43 H6          4.2835   30.5812  -14.0016 H           1 GYN       0.0258
     44 H7          6.0047   30.4716  -13.5459 H           1 GYN       0.0258
     45 H8          8.3535   28.4645  -11.5922 H           1 GYN       0.0329
     46 H9          7.4076   28.9131  -13.0517 H           1 GYN       0.0329
     47 H10         9.0830   28.3934  -13.1756 H           1 GYN       0.0329
     48 H11         9.4445   25.8871  -13.0834 H           1 GYN       0.0417
     49 H12         8.4288   24.2188  -11.4245 H           1 GYN       0.0226
     50 H13         7.2206   23.0497  -11.9244 H           1 GYN       0.0226
     51 H14         5.4918   24.6696  -11.9532 H           1 GYN       0.0362
     52 H15         6.4248   24.9915  -10.5018 H           1 GYN       0.0362
     53 H16         7.7573   26.5557  -15.4162 H           1 GYN       0.0252
     54 H17        11.0397   27.3181  -13.9091 H           1 GYN       0.0377
     55 H18        11.7853   27.5086  -15.4734 H           1 GYN       0.0377
     56 H19        11.3672   25.9025  -14.9121 H           1 GYN       0.0377
     57 H20         8.4508   27.9101  -17.0242 H           1 GYN       0.0742
     58 H21        10.6529   29.3759  -16.1101 H           1 GYN       0.2129
     59 H22        11.4087   27.5955  -17.7171 H           1 GYN       0.0312
     60 H23        10.2893   28.6424  -18.5549 H           1 GYN       0.0312
     61 H24        10.4990   26.6841  -19.8528 H           1 GYN       0.0293
     62 H25         8.8668   26.7084  -19.1905 H           1 GYN       0.0293
     63 H26         9.4696   25.0044  -17.5282 H           1 GYN       0.0598
     64 H27        10.2605   24.2815  -20.3882 H           1 GYN       0.0295
     65 H28         8.7691   23.8358  -19.5136 H           1 GYN       0.0295
     66 H29         9.9180   22.3765  -18.0456 H           1 GYN       0.0345
     67 H30        11.4829   20.9163  -19.3043 H           1 GYN       0.0235
     68 H31        11.6139   22.1293  -20.5922 H           1 GYN       0.0235
     69 H32        10.0622   21.3286  -20.2792 H           1 GYN       0.0235
     70 H33        12.6614   23.4748  -18.7522 H           1 GYN       0.0747
     71 H34        13.9804   22.4035  -15.9357 H           1 GYN       0.0376
     72 H35        13.7808   21.8549  -17.5991 H           1 GYN       0.0376
     73 H36        12.9145   21.0314  -16.3096 H           1 GYN       0.0376
     74 H37        10.6044   23.8493  -15.8640 H           1 GYN       0.0245
     75 H38        12.4015   22.7935  -13.9584 H           1 GYN       0.0369
     76 H39        11.2686   21.5465  -14.4751 H           1 GYN       0.0369
     77 H40        10.6942   24.1470  -13.0317 H           1 GYN       0.0520
     78 H41        10.3379   22.5265  -12.5054 H           1 GYN       0.0520
     79 H42         7.1379   20.7641  -14.5945 H           1 GYN       0.0507
     80 H43         7.4673   21.7035  -16.0517 H           1 GYN       0.0507
     81 H44         5.7560   22.4538  -13.6535 H           1 GYN       0.0277
     82 H45         5.4224   22.6496  -15.3723 H           1 GYN       0.0277
     83 H46         7.0493   24.4059  -15.5730 H           1 GYN       0.0210
     84 H47         5.9296   24.8519  -14.3052 H           1 GYN       0.0210
@<TRIPOS>BOND
     1     1     2   2
     2     2     3   1
     3     2     6   1
     4     3     4   1
     5     4     5   1
     6     4     8   1
     7     5     6   1
     8     6     7   1
     9     8     9   2
    10     8    14   1
    11     9    10   1
    12     9    11   1
    13    11    12   1
    14    11    15   1
    15    12    13   1
    16    12    33   1
    17    12    37   1
    18    13    14   1
    19    15    16   2
    20    16    17   1
    21    16    18   1
    22    18    19   1
    23    18    20   1
    24    20    21   1
    25    21    22   1
    26    22    23   1
    27    22    26   1
    28    23    24   1
    29    24    25   1
    30    24    27   1
    31    26    27   1
    32    27    28   1
    33    28    29   1
    34    28    30   2
    35    30    31   1
    36    31    32   1
    37    32    33   1
    38    33    34   2
    39    34    35   1
    40    35    36   1
    41    36    37   1
    42     4    38   1
    43     5    39   1
    44     5    40   1
    45     6    41   1
    46     7    42   1
    47     7    43   1
    48     7    44   1
    49    10    45   1
    50    10    46   1
    51    10    47   1
    52    11    48   1
    53    13    49   1
    54    13    50   1
    55    14    51   1
    56    14    52   1
    57    15    53   1
    58    17    54   1
    59    17    55   1
    60    17    56   1
    61    18    57   1
    62    19    58   1
    63    20    59   1
    64    20    60   1
    65    21    61   1
    66    21    62   1
    67    22    63   1
    68    23    64   1
    69    23    65   1
    70    24    66   1
    71    25    67   1
    72    25    68   1
    73    25    69   1
    74    27    70   1
    75    29    71   1
    76    29    72   1
    77    29    73   1
    78    30    74   1
    79    31    75   1
    80    31    76   1
    81    32    77   1
    82    32    78   1
    83    35    79   1
    84    35    80   1
    85    36    81   1
    86    36    82   1
    87    37    83   1
    88    37    84   1
@<TRIPOS>SUBSTRUCTURE
     1  GYN      2

