@<TRIPOS>MOLECULE
2x00_ligand_058
    84    88
SMALL
GAST_HUCK
****
This file was generated by PARSER (from files_GN.cpp)

@<TRIPOS>ATOM
      1 O6          8.1295   23.6578   -9.3620 O.2         1 GYN      -0.3700
      2 C5          8.3510   24.4270  -10.4437 C.2         1 GYN       0.2385
      3 O1          8.5081   25.7547  -10.3587 O.3         1 GYN      -0.2655
      4 C2          8.7712   26.3758  -11.6087 C.3         1 GYN       0.1059
      5 C3          8.7979   25.1917  -12.6285 C.3         1 GYN       0.0041
      6 C4          8.4664   23.9128  -11.8065 C.3         1 GYN       0.0613
      7 C7          7.1952   23.1452  -12.2359 C.3         1 GYN      -0.0438
      8 C8          7.7940   27.4871  -11.8229 C.2         1 GYN      -0.0559
      9 C13         8.1323   28.8146  -11.8283 C.2         1 GYN      -0.0876
     10 C14         9.5489   29.2217  -11.9108 C.3         1 GYN      -0.0498
     11 C12         7.1127   29.9219  -11.9325 C.3         1 GYN      -0.0250
     12 C27         5.5797   29.4811  -11.7849 C.3         1 GYN       0.0148
     13 C10         5.4576   28.1194  -12.5340 C.3         1 GYN      -0.0494
     14 C9          6.3903   27.0529  -11.9200 C.3         1 GYN      -0.0395
     15 C15         7.4239   31.0510  -11.0251 C.2         1 GYN      -0.1023
     16 C16         7.7591   32.3398  -11.2946 C.2         1 GYN      -0.0548
     17 C19         7.9033   32.8336  -12.6654 C.3         1 GYN      -0.0377
     18 C17         8.1015   33.2643  -10.1918 C.3         1 GYN       0.0804
     19 O20         9.4510   33.6924  -10.3965 O.3         1 GYN      -0.3807
     20 C18         7.1641   34.5076  -10.0273 C.3         1 GYN      -0.0158
     21 C21         5.8136   34.2562   -9.2971 C.3         1 GYN      -0.0223
     22 C43         4.6221   33.8246  -10.1959 C.3         1 GYN       0.0623
     23 C47         3.3202   33.5675   -9.4074 C.3         1 GYN      -0.0197
     24 C48         2.2046   34.2157  -10.2613 C.3         1 GYN      -0.0066
     25 C49         1.4866   35.3910   -9.5422 C.3         1 GYN      -0.0582
     26 O43         4.2980   34.8561  -11.1415 O.3         1 GYN      -0.3622
     27 C37         2.9342   34.6662  -11.5669 C.3         1 GYN       0.0865
     28 C36         2.7234   33.7501  -12.7098 C.2         1 GYN      -0.0553
     29 C38         1.3544   33.5311  -13.1744 C.3         1 GYN      -0.0379
     30 C35         3.7679   33.1633  -13.3383 C.2         1 GYN      -0.1039
     31 C34         3.7204   32.0315  -14.2543 C.3         1 GYN      -0.0315
     32 C33         4.6557   30.8639  -13.8128 C.3         1 GYN       0.0100
     33 C32         4.5458   30.3556  -12.4316 C.2         1 GYN       0.0383
     34 N31         3.3337   30.3213  -11.9928 N.2         1 GYN      -0.2722
     35 C30         2.7603   29.6795  -10.8824 C.3         1 GYN       0.0432
     36 C46         3.7406   28.8155  -10.0458 C.3         1 GYN      -0.0375
     37 C28         5.1825   29.3276  -10.2532 C.3         1 GYN      -0.0530
     38 H1          9.7882   26.7380  -11.5221 H           1 GYN       0.0753
     39 H2          9.8060   25.0956  -13.0389 H           1 GYN       0.0338
     40 H3          8.1501   25.3215  -13.4833 H           1 GYN       0.0338
     41 H4          9.3219   23.2270  -11.8408 H           1 GYN       0.0553
     42 H5          7.0651   22.2670  -11.6035 H           1 GYN       0.0258
     43 H6          7.2948   22.8121  -13.2671 H           1 GYN       0.0258
     44 H7          6.3037   23.7627  -12.1509 H           1 GYN       0.0258
     45 H8          9.6915   30.2804  -12.0940 H           1 GYN       0.0329
     46 H9         10.0459   28.7069  -12.7324 H           1 GYN       0.0329
     47 H10        10.0649   28.9926  -10.9796 H           1 GYN       0.0329
     48 H11         7.2652   30.2527  -12.9527 H           1 GYN       0.0417
     49 H12         5.7609   28.2397  -13.5778 H           1 GYN       0.0226
     50 H13         4.4320   27.7491  -12.5448 H           1 GYN       0.0226
     51 H14         6.0314   26.7705  -10.9325 H           1 GYN       0.0362
     52 H15         6.2497   26.1789  -12.5287 H           1 GYN       0.0362
     53 H16         7.4345   30.8011  -10.0636 H           1 GYN       0.0252
     54 H17         8.6039   32.2144  -13.2278 H           1 GYN       0.0377
     55 H18         8.2816   33.8580  -12.7109 H           1 GYN       0.0377
     56 H19         6.9427   32.8328  -13.1679 H           1 GYN       0.0377
     57 H20         8.1177   32.7531   -9.2237 H           1 GYN       0.0742
     58 H21         9.7303   34.1104   -9.5570 H           1 GYN       0.2129
     59 H22         6.9824   34.9856  -10.9923 H           1 GYN       0.0312
     60 H23         7.7110   35.2391   -9.4222 H           1 GYN       0.0312
     61 H24         5.5197   35.1852   -8.7966 H           1 GYN       0.0293
     62 H25         5.9532   33.5019   -8.5175 H           1 GYN       0.0293
     63 H26         4.9075   32.9162  -10.7339 H           1 GYN       0.0598
     64 H27         3.3566   33.9966   -8.4020 H           1 GYN       0.0295
     65 H28         3.1575   32.4918   -9.3006 H           1 GYN       0.0295
     66 H29         1.4403   33.4598  -10.4636 H           1 GYN       0.0345
     67 H30         0.7292   35.8237  -10.1989 H           1 GYN       0.0235
     68 H31         2.1981   36.1711   -9.2648 H           1 GYN       0.0235
     69 H32         0.9889   35.0305   -8.6398 H           1 GYN       0.0235
     70 H33         2.5801   35.6502  -11.8896 H           1 GYN       0.0747
     71 H34         1.2890   33.6794  -14.2556 H           1 GYN       0.0376
     72 H35         0.6437   34.2211  -12.7131 H           1 GYN       0.0376
     73 H36         1.0394   32.5132  -12.9317 H           1 GYN       0.0376
     74 H37         4.6763   33.5050  -13.1447 H           1 GYN       0.0245
     75 H38         4.0384   32.3837  -15.2397 H           1 GYN       0.0369
     76 H39         2.7146   31.6273  -14.3712 H           1 GYN       0.0369
     77 H40         5.6631   31.1929  -14.0277 H           1 GYN       0.0520
     78 H41         4.4626   30.0315  -14.4932 H           1 GYN       0.0520
     79 H42         1.9473   29.0430  -11.2313 H           1 GYN       0.0507
     80 H43         2.3270   30.4476  -10.2425 H           1 GYN       0.0507
     81 H44         3.6694   27.7656  -10.3424 H           1 GYN       0.0277
     82 H45         3.4837   28.8670   -8.9856 H           1 GYN       0.0277
     83 H46         5.2245   30.3015   -9.7577 H           1 GYN       0.0210
     84 H47         5.8816   28.6808   -9.7174 H           1 GYN       0.0210
@<TRIPOS>BOND
     1     1     2   2
     2     2     3   1
     3     2     6   1
     4     3     4   1
     5     4     5   1
     6     4     8   1
     7     5     6   1
     8     6     7   1
     9     8     9   2
    10     8    14   1
    11     9    10   1
    12     9    11   1
    13    11    12   1
    14    11    15   1
    15    12    13   1
    16    12    33   1
    17    12    37   1
    18    13    14   1
    19    15    16   2
    20    16    17   1
    21    16    18   1
    22    18    19   1
    23    18    20   1
    24    20    21   1
    25    21    22   1
    26    22    23   1
    27    22    26   1
    28    23    24   1
    29    24    25   1
    30    24    27   1
    31    26    27   1
    32    27    28   1
    33    28    29   1
    34    28    30   2
    35    30    31   1
    36    31    32   1
    37    32    33   1
    38    33    34   2
    39    34    35   1
    40    35    36   1
    41    36    37   1
    42     4    38   1
    43     5    39   1
    44     5    40   1
    45     6    41   1
    46     7    42   1
    47     7    43   1
    48     7    44   1
    49    10    45   1
    50    10    46   1
    51    10    47   1
    52    11    48   1
    53    13    49   1
    54    13    50   1
    55    14    51   1
    56    14    52   1
    57    15    53   1
    58    17    54   1
    59    17    55   1
    60    17    56   1
    61    18    57   1
    62    19    58   1
    63    20    59   1
    64    20    60   1
    65    21    61   1
    66    21    62   1
    67    22    63   1
    68    23    64   1
    69    23    65   1
    70    24    66   1
    71    25    67   1
    72    25    68   1
    73    25    69   1
    74    27    70   1
    75    29    71   1
    76    29    72   1
    77    29    73   1
    78    30    74   1
    79    31    75   1
    80    31    76   1
    81    32    77   1
    82    32    78   1
    83    35    79   1
    84    35    80   1
    85    36    81   1
    86    36    82   1
    87    37    83   1
    88    37    84   1
@<TRIPOS>SUBSTRUCTURE
     1  GYN      2

