@<TRIPOS>MOLECULE
2x00_ligand_019
    84    88
SMALL
GAST_HUCK
****
This file was generated by PARSER (from files_GN.cpp)

@<TRIPOS>ATOM
      1 O6         -2.5086   29.1058    4.1430 O.2         1 GYN      -0.3700
      2 C5         -2.1328   29.6565    2.9667 C.2         1 GYN       0.2385
      3 O1         -1.8774   28.9129    1.8729 O.3         1 GYN      -0.2655
      4 C2         -1.5694   29.6886    0.7222 C.3         1 GYN       0.1059
      5 C3         -1.6691   31.1671    1.2204 C.3         1 GYN       0.0041
      6 C4         -2.0119   31.0967    2.7360 C.3         1 GYN       0.0613
      7 C7         -0.9523   31.7339    3.6736 C.3         1 GYN      -0.0438
      8 C8         -0.2760   29.2575    0.1266 C.2         1 GYN      -0.0559
      9 C13        -0.1351   28.8180   -1.1659 C.2         1 GYN      -0.0876
     10 C14        -1.2048   29.0979   -2.1465 C.3         1 GYN      -0.0498
     11 C12         1.1176   28.1688   -1.6918 C.3         1 GYN      -0.0250
     12 C27         2.2318   27.8408   -0.5832 C.3         1 GYN       0.0148
     13 C10         2.2425   29.0696    0.3846 C.3         1 GYN      -0.0494
     14 C9          0.8703   29.2823    1.0451 C.3         1 GYN      -0.0395
     15 C15         0.7745   26.9769   -2.5099 C.2         1 GYN      -0.1023
     16 C16         0.8654   26.7558   -3.8482 C.2         1 GYN      -0.0548
     17 C19         1.3700   27.7861   -4.7599 C.3         1 GYN      -0.0377
     18 C17         0.2370   25.5418   -4.4299 C.3         1 GYN       0.0804
     19 O20        -0.9267   25.9612   -5.1497 O.3         1 GYN      -0.3807
     20 C18         1.0913   24.6067   -5.3447 C.3         1 GYN      -0.0158
     21 C21         2.1344   23.6822   -4.6448 C.3         1 GYN      -0.0223
     22 C43         3.4297   24.3888   -4.1667 C.3         1 GYN       0.0623
     23 C47         4.5274   23.4519   -3.6049 C.3         1 GYN      -0.0197
     24 C48         5.7753   23.7398   -4.4718 C.3         1 GYN      -0.0066
     25 C49         6.0207   22.6600   -5.5609 C.3         1 GYN      -0.0582
     26 O43         4.0357   25.1010   -5.2623 O.3         1 GYN      -0.3622
     27 C37         5.4649   25.1330   -5.0888 C.3         1 GYN       0.0865
     28 C36         6.0083   26.2655   -4.3086 C.2         1 GYN      -0.0553
     29 C38         7.4605   26.4353   -4.2390 C.3         1 GYN      -0.0379
     30 C35         5.1849   27.1240   -3.6749 C.2         1 GYN      -0.1039
     31 C34         5.5471   28.1514   -2.7173 C.3         1 GYN      -0.0315
     32 C33         4.3283   28.6954   -1.9093 C.3         1 GYN       0.0100
     33 C32         3.6488   27.7166   -1.0444 C.2         1 GYN       0.0383
     34 N31         4.4801   27.0077   -0.3489 N.2         1 GYN      -0.2722
     35 C30         4.3090   26.1692    0.7510 C.3         1 GYN       0.0432
     36 C46         2.8694   26.1498    1.3202 C.3         1 GYN      -0.0375
     37 C28         1.8699   26.5000    0.1934 C.3         1 GYN      -0.0530
     38 H1         -2.4079   29.5156    0.0493 H           1 GYN       0.0753
     39 H2         -2.4789   31.6773    0.6777 H           1 GYN       0.0338
     40 H3         -0.7501   31.7392    1.0258 H           1 GYN       0.0338
     41 H4         -2.9818   31.5706    2.9081 H           1 GYN       0.0553
     42 H5         -1.2591   31.6154    4.7178 H           1 GYN       0.0258
     43 H6         -0.8554   32.8022    3.4570 H           1 GYN       0.0258
     44 H7          0.0275   31.2584    3.5442 H           1 GYN       0.0258
     45 H8         -1.4961   30.1533   -2.1062 H           1 GYN       0.0329
     46 H9         -2.0731   28.4666   -1.9335 H           1 GYN       0.0329
     47 H10        -0.9204   28.9024   -3.1812 H           1 GYN       0.0329
     48 H11         1.5197   28.9334   -2.3518 H           1 GYN       0.0417
     49 H12         2.4777   29.9783   -0.1748 H           1 GYN       0.0226
     50 H13         2.9904   28.9860    1.1781 H           1 GYN       0.0226
     51 H14         0.7188   28.5267    1.8183 H           1 GYN       0.0362
     52 H15         0.9324   30.2441    1.5543 H           1 GYN       0.0362
     53 H16         0.3089   26.2723   -1.9897 H           1 GYN       0.0252
     54 H17         0.7288   28.6663   -4.7425 H           1 GYN       0.0377
     55 H18         1.4128   27.4498   -5.7953 H           1 GYN       0.0377
     56 H19         2.3711   28.0963   -4.4818 H           1 GYN       0.0377
     57 H20        -0.1560   24.8880   -3.6493 H           1 GYN       0.0742
     58 H21        -0.5988   26.4439   -5.9387 H           1 GYN       0.2129
     59 H22         1.5800   25.1746   -6.1375 H           1 GYN       0.0312
     60 H23         0.3877   23.9363   -5.8474 H           1 GYN       0.0312
     61 H24         2.4219   22.8992   -5.3536 H           1 GYN       0.0293
     62 H25         1.6609   23.1873   -3.7922 H           1 GYN       0.0293
     63 H26         3.1408   25.0898   -3.3802 H           1 GYN       0.0598
     64 H27         4.2353   22.4007   -3.6360 H           1 GYN       0.0295
     65 H28         4.7379   23.7110   -2.5629 H           1 GYN       0.0295
     66 H29         6.6694   23.7641   -3.8383 H           1 GYN       0.0345
     67 H30         6.8679   22.9442   -6.1902 H           1 GYN       0.0235
     68 H31         5.1384   22.5312   -6.1940 H           1 GYN       0.0235
     69 H32         6.2602   21.7054   -5.0901 H           1 GYN       0.0235
     70 H33         5.8855   25.2195   -6.0950 H           1 GYN       0.0747
     71 H34         7.7422   27.4347   -4.5767 H           1 GYN       0.0376
     72 H35         7.9903   25.7174   -4.8683 H           1 GYN       0.0376
     73 H36         7.8080   26.2979   -3.2141 H           1 GYN       0.0376
     74 H37         4.2196   27.0221   -3.8247 H           1 GYN       0.0245
     75 H38         6.0189   28.9775   -3.2441 H           1 GYN       0.0369
     76 H39         6.2815   27.7476   -2.0212 H           1 GYN       0.0369
     77 H40         3.6487   29.1530   -2.6234 H           1 GYN       0.0520
     78 H41         4.6867   29.5078   -1.2753 H           1 GYN       0.0520
     79 H42         4.9994   26.4904    1.5322 H           1 GYN       0.0507
     80 H43         4.5930   25.1607    0.4484 H           1 GYN       0.0507
     81 H44         2.7777   26.8669    2.1386 H           1 GYN       0.0277
     82 H45         2.6406   25.1610    1.7284 H           1 GYN       0.0277
     83 H46         1.9115   25.6606   -0.5046 H           1 GYN       0.0210
     84 H47         0.8558   26.5257    0.5967 H           1 GYN       0.0210
@<TRIPOS>BOND
     1     1     2   2
     2     2     3   1
     3     2     6   1
     4     3     4   1
     5     4     5   1
     6     4     8   1
     7     5     6   1
     8     6     7   1
     9     8     9   2
    10     8    14   1
    11     9    10   1
    12     9    11   1
    13    11    12   1
    14    11    15   1
    15    12    13   1
    16    12    33   1
    17    12    37   1
    18    13    14   1
    19    15    16   2
    20    16    17   1
    21    16    18   1
    22    18    19   1
    23    18    20   1
    24    20    21   1
    25    21    22   1
    26    22    23   1
    27    22    26   1
    28    23    24   1
    29    24    25   1
    30    24    27   1
    31    26    27   1
    32    27    28   1
    33    28    29   1
    34    28    30   2
    35    30    31   1
    36    31    32   1
    37    32    33   1
    38    33    34   2
    39    34    35   1
    40    35    36   1
    41    36    37   1
    42     4    38   1
    43     5    39   1
    44     5    40   1
    45     6    41   1
    46     7    42   1
    47     7    43   1
    48     7    44   1
    49    10    45   1
    50    10    46   1
    51    10    47   1
    52    11    48   1
    53    13    49   1
    54    13    50   1
    55    14    51   1
    56    14    52   1
    57    15    53   1
    58    17    54   1
    59    17    55   1
    60    17    56   1
    61    18    57   1
    62    19    58   1
    63    20    59   1
    64    20    60   1
    65    21    61   1
    66    21    62   1
    67    22    63   1
    68    23    64   1
    69    23    65   1
    70    24    66   1
    71    25    67   1
    72    25    68   1
    73    25    69   1
    74    27    70   1
    75    29    71   1
    76    29    72   1
    77    29    73   1
    78    30    74   1
    79    31    75   1
    80    31    76   1
    81    32    77   1
    82    32    78   1
    83    35    79   1
    84    35    80   1
    85    36    81   1
    86    36    82   1
    87    37    83   1
    88    37    84   1
@<TRIPOS>SUBSTRUCTURE
     1  GYN      2

