@<TRIPOS>MOLECULE
2x00_ligand_061
    84    88
SMALL
GAST_HUCK
****
This file was generated by PARSER (from files_GN.cpp)

@<TRIPOS>ATOM
      1 O6         -2.6314   33.0395   -2.1372 O.2         1 GYN      -0.3700
      2 C5         -2.5451   32.5580   -3.3955 C.2         1 GYN       0.2385
      3 O1         -2.1651   31.2917   -3.6495 O.3         1 GYN      -0.2655
      4 C2         -2.2143   30.9597   -5.0347 C.3         1 GYN       0.1059
      5 C3         -2.6296   32.2897   -5.7349 C.3         1 GYN       0.0041
      6 C4         -2.9273   33.3030   -4.5935 C.3         1 GYN       0.0613
      7 C7         -2.1657   34.6479   -4.7082 C.3         1 GYN      -0.0438
      8 C8         -0.9501   30.3110   -5.4687 C.2         1 GYN      -0.0559
      9 C13        -0.9222   29.0786   -6.0525 C.2         1 GYN      -0.0876
     10 C14        -2.0837   28.6153   -6.8333 C.3         1 GYN      -0.0498
     11 C12         0.2982   28.2177   -6.0660 C.3         1 GYN      -0.0250
     12 C27         1.5972   28.7991   -5.3263 C.3         1 GYN       0.0148
     13 C10         1.5961   30.3317   -5.6704 C.3         1 GYN      -0.0494
     14 C9          0.2994   31.0344   -5.1820 C.3         1 GYN      -0.0395
     15 C15        -0.0768   26.8750   -5.5783 C.2         1 GYN      -0.1023
     16 C16        -0.0771   25.6856   -6.2297 C.2         1 GYN      -0.0548
     17 C19         0.3648   25.5659   -7.6193 C.3         1 GYN      -0.0377
     18 C17        -0.6008   24.4800   -5.5518 C.3         1 GYN       0.0804
     19 O20        -1.7176   23.9751   -6.2904 O.3         1 GYN      -0.3807
     20 C18         0.4463   23.3438   -5.3180 C.3         1 GYN      -0.0158
     21 C21         1.3301   23.4609   -4.0406 C.3         1 GYN      -0.0223
     22 C43         2.6777   24.2088   -4.2353 C.3         1 GYN       0.0623
     23 C47         3.5705   24.2037   -2.9798 C.3         1 GYN      -0.0197
     24 C48         5.0000   24.3502   -3.5475 C.3         1 GYN      -0.0066
     25 C49         6.0419   23.4561   -2.8199 C.3         1 GYN      -0.0582
     26 O43         3.4942   23.5691   -5.2235 O.3         1 GYN      -0.3622
     27 C37         4.8476   24.0412   -5.0743 C.3         1 GYN       0.0865
     28 C36         5.2350   25.1796   -5.9399 C.2         1 GYN      -0.0553
     29 C38         6.6150   25.6586   -5.8580 C.3         1 GYN      -0.0379
     30 C35         4.3412   25.7621   -6.7774 C.2         1 GYN      -0.1039
     31 C34         4.4716   27.0300   -7.4880 C.3         1 GYN      -0.0315
     32 C33         3.3401   28.0680   -7.1749 C.3         1 GYN       0.0100
     33 C32         2.9294   28.2550   -5.7711 C.2         1 GYN       0.0383
     34 N31         3.9198   28.1973   -4.9400 N.2         1 GYN      -0.2722
     35 C30         3.9932   28.4396   -3.5694 C.3         1 GYN       0.0432
     36 C46         2.7262   29.1001   -2.9831 C.3         1 GYN      -0.0375
     37 C28         1.4954   28.5767   -3.7560 C.3         1 GYN      -0.0530
     38 H1         -3.0633   30.2783   -5.1046 H           1 GYN       0.0753
     39 H2         -3.5251   32.1355   -6.3401 H           1 GYN       0.0338
     40 H3         -1.8494   32.6583   -6.4056 H           1 GYN       0.0338
     41 H4         -4.0021   33.5055   -4.5450 H           1 GYN       0.0553
     42 H5         -2.4273   35.2987   -3.8660 H           1 GYN       0.0258
     43 H6         -2.4453   35.1528   -5.6348 H           1 GYN       0.0258
     44 H7         -1.0861   34.4793   -4.7011 H           1 GYN       0.0258
     45 H8         -1.8340   27.8045   -7.5193 H           1 GYN       0.0329
     46 H9         -2.4916   29.4237   -7.4477 H           1 GYN       0.0329
     47 H10        -2.8591   28.2422   -6.1666 H           1 GYN       0.0329
     48 H11         0.5308   28.1718   -7.1215 H           1 GYN       0.0417
     49 H12         1.6597   30.4629   -6.7576 H           1 GYN       0.0226
     50 H13         2.4602   30.8450   -5.2489 H           1 GYN       0.0226
     51 H14         0.3851   31.2094   -4.1076 H           1 GYN       0.0362
     52 H15         0.2723   32.0200   -5.6551 H           1 GYN       0.0362
     53 H16        -0.4536   26.8709   -4.6567 H           1 GYN       0.0252
     54 H17        -0.1757   26.2560   -8.2637 H           1 GYN       0.0377
     55 H18         0.2184   24.5672   -8.0290 H           1 GYN       0.0377
     56 H19         1.4224   25.7843   -7.6863 H           1 GYN       0.0377
     57 H20        -1.0340   24.7246   -4.5778 H           1 GYN       0.0742
     58 H21        -1.3517   23.5956   -7.1157 H           1 GYN       0.2129
     59 H22         1.0873   23.2395   -6.1889 H           1 GYN       0.0312
     60 H23        -0.1009   22.4037   -5.2383 H           1 GYN       0.0312
     61 H24         1.5604   22.4466   -3.7028 H           1 GYN       0.0293
     62 H25         0.7635   23.9421   -3.2387 H           1 GYN       0.0293
     63 H26         2.4691   25.2420   -4.5342 H           1 GYN       0.0598
     64 H27         3.4631   23.2600   -2.4366 H           1 GYN       0.0295
     65 H28         3.3141   25.0273   -2.3057 H           1 GYN       0.0295
     66 H29         5.3159   25.3876   -3.3957 H           1 GYN       0.0345
     67 H30         7.0273   23.5633   -3.2776 H           1 GYN       0.0235
     68 H31         5.7479   22.4053   -2.8683 H           1 GYN       0.0235
     69 H32         6.1187   23.7527   -1.7716 H           1 GYN       0.0235
     70 H33         5.4808   23.1957   -5.3605 H           1 GYN       0.0747
     71 H34         7.0638   25.6978   -6.8531 H           1 GYN       0.0376
     72 H35         7.2484   25.0114   -5.2481 H           1 GYN       0.0376
     73 H36         6.6366   26.6549   -5.4109 H           1 GYN       0.0376
     74 H37         3.4790   25.3010   -6.9110 H           1 GYN       0.0245
     75 H38         4.4548   26.8097   -8.5617 H           1 GYN       0.0369
     76 H39         5.4277   27.5072   -7.2906 H           1 GYN       0.0369
     77 H40         2.5019   27.7871   -7.7985 H           1 GYN       0.0520
     78 H41         3.6667   29.0378   -7.5510 H           1 GYN       0.0520
     79 H42         4.8585   29.0695   -3.3589 H           1 GYN       0.0507
     80 H43         4.1585   27.4816   -3.0751 H           1 GYN       0.0507
     81 H44         2.7986   30.1841   -3.0674 H           1 GYN       0.0277
     82 H45         2.6361   28.8574   -1.9200 H           1 GYN       0.0277
     83 H46         1.4506   27.5073   -3.5371 H           1 GYN       0.0210
     84 H47         0.5901   29.0151   -3.3349 H           1 GYN       0.0210
@<TRIPOS>BOND
     1     1     2   2
     2     2     3   1
     3     2     6   1
     4     3     4   1
     5     4     5   1
     6     4     8   1
     7     5     6   1
     8     6     7   1
     9     8     9   2
    10     8    14   1
    11     9    10   1
    12     9    11   1
    13    11    12   1
    14    11    15   1
    15    12    13   1
    16    12    33   1
    17    12    37   1
    18    13    14   1
    19    15    16   2
    20    16    17   1
    21    16    18   1
    22    18    19   1
    23    18    20   1
    24    20    21   1
    25    21    22   1
    26    22    23   1
    27    22    26   1
    28    23    24   1
    29    24    25   1
    30    24    27   1
    31    26    27   1
    32    27    28   1
    33    28    29   1
    34    28    30   2
    35    30    31   1
    36    31    32   1
    37    32    33   1
    38    33    34   2
    39    34    35   1
    40    35    36   1
    41    36    37   1
    42     4    38   1
    43     5    39   1
    44     5    40   1
    45     6    41   1
    46     7    42   1
    47     7    43   1
    48     7    44   1
    49    10    45   1
    50    10    46   1
    51    10    47   1
    52    11    48   1
    53    13    49   1
    54    13    50   1
    55    14    51   1
    56    14    52   1
    57    15    53   1
    58    17    54   1
    59    17    55   1
    60    17    56   1
    61    18    57   1
    62    19    58   1
    63    20    59   1
    64    20    60   1
    65    21    61   1
    66    21    62   1
    67    22    63   1
    68    23    64   1
    69    23    65   1
    70    24    66   1
    71    25    67   1
    72    25    68   1
    73    25    69   1
    74    27    70   1
    75    29    71   1
    76    29    72   1
    77    29    73   1
    78    30    74   1
    79    31    75   1
    80    31    76   1
    81    32    77   1
    82    32    78   1
    83    35    79   1
    84    35    80   1
    85    36    81   1
    86    36    82   1
    87    37    83   1
    88    37    84   1
@<TRIPOS>SUBSTRUCTURE
     1  GYN      2

