@<TRIPOS>MOLECULE
2x00_ligand_030
    84    88
SMALL
GAST_HUCK
****
This file was generated by PARSER (from files_GN.cpp)

@<TRIPOS>ATOM
      1 O6          3.1236   25.2389   -9.3611 O.2         1 GYN      -0.3700
      2 C5          2.7049   25.4784   -8.1008 C.2         1 GYN       0.2385
      3 O1          1.3965   25.5582   -7.7856 O.3         1 GYN      -0.2655
      4 C2          1.1525   25.8321   -6.4083 C.3         1 GYN       0.1059
      5 C3          2.5878   25.7516   -5.7797 C.3         1 GYN       0.0041
      6 C4          3.5942   25.6386   -6.9521 C.3         1 GYN       0.0613
      7 C7          4.5440   26.8515   -7.0905 C.3         1 GYN      -0.0438
      8 C8          0.2723   27.0387   -6.3723 C.2         1 GYN      -0.0559
      9 C13        -1.0738   26.9731   -6.6329 C.2         1 GYN      -0.0876
     10 C14        -1.7688   25.6787   -6.4538 C.3         1 GYN      -0.0498
     11 C12        -1.9312   28.1824   -6.9076 C.3         1 GYN      -0.0250
     12 C27        -1.1547   29.5793   -7.0714 C.3         1 GYN       0.0148
     13 C10        -0.0033   29.5420   -6.0106 C.3         1 GYN      -0.0494
     14 C9          0.9376   28.3340   -6.2068 C.3         1 GYN      -0.0395
     15 C15        -2.8590   27.9098   -8.0328 C.2         1 GYN      -0.1023
     16 C16        -4.2048   27.7176   -8.0366 C.2         1 GYN      -0.0548
     17 C19        -4.9893   27.7705   -6.8004 C.3         1 GYN      -0.0377
     18 C17        -4.8650   27.2052   -9.2629 C.3         1 GYN       0.0804
     19 O20        -5.2351   25.8474   -9.0077 O.3         1 GYN      -0.3807
     20 C18        -6.1233   27.9481   -9.8206 C.3         1 GYN      -0.0158
     21 C21        -5.8763   29.2781  -10.5896 C.3         1 GYN      -0.0223
     22 C43        -5.4860   30.4862   -9.7026 C.3         1 GYN       0.0623
     23 C47        -5.2955   31.8218  -10.4595 C.3         1 GYN      -0.0197
     24 C48        -6.2583   32.8127   -9.7671 C.3         1 GYN      -0.0066
     25 C49        -7.5234   33.1045  -10.6200 C.3         1 GYN      -0.0582
     26 O43        -6.5140   30.7121   -8.7230 O.3         1 GYN      -0.3622
     27 C37        -6.5868   32.1146   -8.4145 C.3         1 GYN       0.0865
     28 C36        -5.7595   32.5764   -7.2765 C.2         1 GYN      -0.0553
     29 C38        -5.9772   33.9332   -6.7735 C.3         1 GYN      -0.0379
     30 C35        -4.8367   31.7695   -6.7059 C.2         1 GYN      -0.1039
     31 C34        -3.8773   32.1054   -5.6643 C.3         1 GYN      -0.0315
     32 C33        -2.7071   31.0752   -5.5401 C.3         1 GYN       0.0100
     33 C32        -1.9166   30.8393   -6.7634 C.2         1 GYN       0.0383
     34 N31        -1.6087   31.9425   -7.3623 N.2         1 GYN      -0.2722
     35 C30        -0.7244   32.2327   -8.4014 C.3         1 GYN       0.0432
     36 C46         0.1945   31.0475   -8.7841 C.3         1 GYN      -0.0375
     37 C28        -0.5687   29.7240   -8.5424 C.3         1 GYN      -0.0530
     38 H1          0.6225   24.9749   -5.9880 H           1 GYN       0.0753
     39 H2          2.6685   24.8416   -5.1767 H           1 GYN       0.0338
     40 H3          2.8385   26.5679   -5.1075 H           1 GYN       0.0338
     41 H4          4.1938   24.7296   -6.8484 H           1 GYN       0.0553
     42 H5          5.2330   26.6999   -7.9216 H           1 GYN       0.0258
     43 H6          5.1287   26.9648   -6.1767 H           1 GYN       0.0258
     44 H7          3.9834   27.7713   -7.2621 H           1 GYN       0.0258
     45 H8         -1.6435   25.3283   -5.4263 H           1 GYN       0.0329
     46 H9         -1.3752   24.9266   -7.1385 H           1 GYN       0.0329
     47 H10        -2.8377   25.7184   -6.6344 H           1 GYN       0.0329
     48 H11        -2.5099   28.2545   -5.9969 H           1 GYN       0.0417
     49 H12        -0.4327   29.4626   -5.0069 H           1 GYN       0.0226
     50 H13         0.5937   30.4569   -6.0233 H           1 GYN       0.0226
     51 H14         1.5840   28.5095   -7.0717 H           1 GYN       0.0362
     52 H15         1.5719   28.3195   -5.3228 H           1 GYN       0.0362
     53 H16        -2.3941   27.7252   -8.8898 H           1 GYN       0.0252
     54 H17        -4.6945   26.9627   -6.1348 H           1 GYN       0.0377
     55 H18        -6.0591   27.6574   -6.9658 H           1 GYN       0.0377
     56 H19        -4.8429   28.7122   -6.2809 H           1 GYN       0.0377
     57 H20        -4.1642   27.1504  -10.1003 H           1 GYN       0.0742
     58 H21        -4.3922   25.3440   -9.0300 H           1 GYN       0.2129
     59 H22        -6.8596   28.1141   -9.0343 H           1 GYN       0.0312
     60 H23        -6.5999   27.2724  -10.5395 H           1 GYN       0.0312
     61 H24        -6.7976   29.5335  -11.1218 H           1 GYN       0.0293
     62 H25        -5.0997   29.1201  -11.3411 H           1 GYN       0.0293
     63 H26        -4.5465   30.2390   -9.2050 H           1 GYN       0.0598
     64 H27        -5.4983   31.7257  -11.5296 H           1 GYN       0.0295
     65 H28        -4.2637   32.1677  -10.3456 H           1 GYN       0.0295
     66 H29        -5.7489   33.7695   -9.6111 H           1 GYN       0.0345
     67 H30        -8.1932   33.7797  -10.0831 H           1 GYN       0.0235
     68 H31        -8.0618   32.1825  -10.8458 H           1 GYN       0.0235
     69 H32        -7.2400   33.5826  -11.5602 H           1 GYN       0.0235
     70 H33        -7.6292   32.2920   -8.1327 H           1 GYN       0.0747
     71 H34        -6.2268   33.9037   -5.7105 H           1 GYN       0.0376
     72 H35        -6.7977   34.4395   -7.2877 H           1 GYN       0.0376
     73 H36        -5.0792   34.5378   -6.9130 H           1 GYN       0.0376
     74 H37        -4.7742   30.8479   -7.0427 H           1 GYN       0.0245
     75 H38        -4.4068   32.1641   -4.7106 H           1 GYN       0.0369
     76 H39        -3.4443   33.0882   -5.8630 H           1 GYN       0.0369
     77 H40        -3.1293   30.1546   -5.1525 H           1 GYN       0.0520
     78 H41        -2.0255   31.4463   -4.7709 H           1 GYN       0.0520
     79 H42        -0.1105   33.0875   -8.1076 H           1 GYN       0.0507
     80 H43        -1.3221   32.5286   -9.2656 H           1 GYN       0.0507
     81 H44         1.1119   31.0723   -8.1924 H           1 GYN       0.0277
     82 H45         0.4827   31.1268   -9.8353 H           1 GYN       0.0277
     83 H46        -1.3936   29.7403   -9.2589 H           1 GYN       0.0210
     84 H47         0.0674   28.8798   -8.8124 H           1 GYN       0.0210
@<TRIPOS>BOND
     1     1     2   2
     2     2     3   1
     3     2     6   1
     4     3     4   1
     5     4     5   1
     6     4     8   1
     7     5     6   1
     8     6     7   1
     9     8     9   2
    10     8    14   1
    11     9    10   1
    12     9    11   1
    13    11    12   1
    14    11    15   1
    15    12    13   1
    16    12    33   1
    17    12    37   1
    18    13    14   1
    19    15    16   2
    20    16    17   1
    21    16    18   1
    22    18    19   1
    23    18    20   1
    24    20    21   1
    25    21    22   1
    26    22    23   1
    27    22    26   1
    28    23    24   1
    29    24    25   1
    30    24    27   1
    31    26    27   1
    32    27    28   1
    33    28    29   1
    34    28    30   2
    35    30    31   1
    36    31    32   1
    37    32    33   1
    38    33    34   2
    39    34    35   1
    40    35    36   1
    41    36    37   1
    42     4    38   1
    43     5    39   1
    44     5    40   1
    45     6    41   1
    46     7    42   1
    47     7    43   1
    48     7    44   1
    49    10    45   1
    50    10    46   1
    51    10    47   1
    52    11    48   1
    53    13    49   1
    54    13    50   1
    55    14    51   1
    56    14    52   1
    57    15    53   1
    58    17    54   1
    59    17    55   1
    60    17    56   1
    61    18    57   1
    62    19    58   1
    63    20    59   1
    64    20    60   1
    65    21    61   1
    66    21    62   1
    67    22    63   1
    68    23    64   1
    69    23    65   1
    70    24    66   1
    71    25    67   1
    72    25    68   1
    73    25    69   1
    74    27    70   1
    75    29    71   1
    76    29    72   1
    77    29    73   1
    78    30    74   1
    79    31    75   1
    80    31    76   1
    81    32    77   1
    82    32    78   1
    83    35    79   1
    84    35    80   1
    85    36    81   1
    86    36    82   1
    87    37    83   1
    88    37    84   1
@<TRIPOS>SUBSTRUCTURE
     1  GYN      2

