@<TRIPOS>MOLECULE
2x00_ligand_041
    84    88
SMALL
GAST_HUCK
****
This file was generated by PARSER (from files_GN.cpp)

@<TRIPOS>ATOM
      1 O6          6.7793   27.0787   -4.4766 O.2         1 GYN      -0.3700
      2 C5          6.4018   26.1594   -5.3871 C.2         1 GYN       0.2385
      3 O1          7.2712   25.3446   -6.0087 O.3         1 GYN      -0.2655
      4 C2          6.6517   24.3958   -6.8734 C.3         1 GYN       0.1059
      5 C3          5.1338   24.7367   -6.7788 C.3         1 GYN       0.0041
      6 C4          5.0060   25.8920   -5.7548 C.3         1 GYN       0.0613
      7 C7          4.2906   27.1459   -6.3223 C.3         1 GYN      -0.0438
      8 C8          7.1308   24.2559   -8.2775 C.2         1 GYN      -0.0559
      9 C13         7.7388   25.2267   -9.0279 C.2         1 GYN      -0.0876
     10 C14         8.3422   26.3810   -8.3560 C.3         1 GYN      -0.0498
     11 C12         7.9812   25.1068  -10.5067 C.3         1 GYN      -0.0250
     12 C27         7.2543   23.8688  -11.2156 C.3         1 GYN       0.0148
     13 C10         7.4236   22.6553  -10.2374 C.3         1 GYN      -0.0494
     14 C9          6.8036   22.9417   -8.8533 C.3         1 GYN      -0.0395
     15 C15         7.7162   26.3910  -11.2235 C.2         1 GYN      -0.1023
     16 C16         8.5509   27.2211  -11.8879 C.2         1 GYN      -0.0548
     17 C19         9.9937   26.9771  -11.9410 C.3         1 GYN      -0.0377
     18 C17         8.0515   28.4975  -12.4616 C.3         1 GYN       0.0804
     19 O20         8.6715   29.5763  -11.7524 O.3         1 GYN      -0.3807
     20 C18         8.3034   28.7466  -13.9859 C.3         1 GYN      -0.0158
     21 C21         7.2937   28.1267  -14.9997 C.3         1 GYN      -0.0223
     22 C43         7.5620   26.6640  -15.4397 C.3         1 GYN       0.0623
     23 C47         6.5390   26.1509  -16.4825 C.3         1 GYN      -0.0197
     24 C48         7.3843   25.3912  -17.5333 C.3         1 GYN      -0.0066
     25 C49         7.3625   26.0565  -18.9363 C.3         1 GYN      -0.0582
     26 O43         8.8388   26.5359  -16.0838 O.3         1 GYN      -0.3622
     27 C37         8.8158   25.3553  -16.9136 C.3         1 GYN       0.0865
     28 C36         9.1724   24.0809  -16.2498 C.2         1 GYN      -0.0553
     29 C38         9.1183   22.8449  -17.0387 C.3         1 GYN      -0.0379
     30 C35         9.6393   24.0631  -14.9840 C.2         1 GYN      -0.1039
     31 C34         9.8490   22.8983  -14.1297 C.3         1 GYN      -0.0315
     32 C33         9.2818   23.0925  -12.6935 C.3         1 GYN       0.0100
     33 C32         7.8519   23.4334  -12.5241 C.2         1 GYN       0.0383
     34 N31         7.0980   23.0433  -13.4940 N.2         1 GYN      -0.2722
     35 C30         5.7085   22.9779  -13.6164 C.3         1 GYN       0.0432
     36 C46         4.9780   23.1080  -12.2594 C.3         1 GYN      -0.0375
     37 C28         5.7092   24.1865  -11.4327 C.3         1 GYN      -0.0530
     38 H1          6.8274   23.4592   -6.3330 H           1 GYN       0.0753
     39 H2          4.5717   23.8600   -6.4404 H           1 GYN       0.0338
     40 H3          4.7146   25.0209   -7.7500 H           1 GYN       0.0338
     41 H4          4.4790   25.5546   -4.8555 H           1 GYN       0.0553
     42 H5          4.2815   27.9453   -5.5838 H           1 GYN       0.0258
     43 H6          3.2577   26.9021   -6.5788 H           1 GYN       0.0258
     44 H7          4.7938   27.5002   -7.2204 H           1 GYN       0.0258
     45 H8          8.8771   27.0632   -9.0124 H           1 GYN       0.0329
     46 H9          9.0655   26.0462   -7.6113 H           1 GYN       0.0329
     47 H10         7.5534   26.9595   -7.8871 H           1 GYN       0.0329
     48 H11         9.0503   24.9178  -10.5385 H           1 GYN       0.0417
     49 H12         8.4865   22.4506  -10.0758 H           1 GYN       0.0226
     50 H13         6.9851   21.7377  -10.6369 H           1 GYN       0.0226
     51 H14         5.7203   22.8260   -8.9073 H           1 GYN       0.0362
     52 H15         7.1561   22.1525   -8.1886 H           1 GYN       0.0362
     53 H16         6.7820   26.7124  -11.1148 H           1 GYN       0.0252
     54 H17        10.3978   26.8427  -10.9349 H           1 GYN       0.0377
     55 H18        10.5580   27.7941  -12.3940 H           1 GYN       0.0377
     56 H19        10.1904   26.0871  -12.5299 H           1 GYN       0.0377
     57 H20         6.9797   28.6165  -12.2920 H           1 GYN       0.0742
     58 H21         8.5429   29.4200  -10.7896 H           1 GYN       0.2129
     59 H22         9.3210   28.4680  -14.2700 H           1 GYN       0.0312
     60 H23         8.2422   29.8312  -14.1443 H           1 GYN       0.0312
     61 H24         7.3130   28.7433  -15.9037 H           1 GYN       0.0293
     62 H25         6.2859   28.1976  -14.5847 H           1 GYN       0.0293
     63 H26         7.5329   26.0233  -14.5531 H           1 GYN       0.0598
     64 H27         5.9805   26.9714  -16.9416 H           1 GYN       0.0295
     65 H28         5.8178   25.4833  -16.0025 H           1 GYN       0.0295
     66 H29         6.9648   24.3860  -17.6514 H           1 GYN       0.0345
     67 H30         7.9668   25.4758  -19.6347 H           1 GYN       0.0235
     68 H31         7.7595   27.0713  -18.8903 H           1 GYN       0.0235
     69 H32         6.3424   26.0946  -19.3203 H           1 GYN       0.0235
     70 H33         9.5723   25.5102  -17.6874 H           1 GYN       0.0747
     71 H34        10.0717   22.3149  -16.9818 H           1 GYN       0.0376
     72 H35         8.9220   23.0341  -18.0952 H           1 GYN       0.0376
     73 H36         8.3251   22.1980  -16.6600 H           1 GYN       0.0376
     74 H37         9.8833   24.9330  -14.5691 H           1 GYN       0.0245
     75 H38        10.9270   22.7278  -14.0557 H           1 GYN       0.0369
     76 H39         9.4109   21.9899  -14.5462 H           1 GYN       0.0369
     77 H40         9.9074   23.8427  -12.2233 H           1 GYN       0.0520
     78 H41         9.4685   22.1590  -12.1595 H           1 GYN       0.0520
     79 H42         5.4382   22.0308  -14.0857 H           1 GYN       0.0507
     80 H43         5.3903   23.7836  -14.2805 H           1 GYN       0.0507
     81 H44         4.9873   22.1615  -11.7207 H           1 GYN       0.0277
     82 H45         3.9301   23.3761  -12.4173 H           1 GYN       0.0277
     83 H46         5.5912   25.1031  -12.0084 H           1 GYN       0.0210
     84 H47         5.1759   24.3482  -10.4957 H           1 GYN       0.0210
@<TRIPOS>BOND
     1     1     2   2
     2     2     3   1
     3     2     6   1
     4     3     4   1
     5     4     5   1
     6     4     8   1
     7     5     6   1
     8     6     7   1
     9     8     9   2
    10     8    14   1
    11     9    10   1
    12     9    11   1
    13    11    12   1
    14    11    15   1
    15    12    13   1
    16    12    33   1
    17    12    37   1
    18    13    14   1
    19    15    16   2
    20    16    17   1
    21    16    18   1
    22    18    19   1
    23    18    20   1
    24    20    21   1
    25    21    22   1
    26    22    23   1
    27    22    26   1
    28    23    24   1
    29    24    25   1
    30    24    27   1
    31    26    27   1
    32    27    28   1
    33    28    29   1
    34    28    30   2
    35    30    31   1
    36    31    32   1
    37    32    33   1
    38    33    34   2
    39    34    35   1
    40    35    36   1
    41    36    37   1
    42     4    38   1
    43     5    39   1
    44     5    40   1
    45     6    41   1
    46     7    42   1
    47     7    43   1
    48     7    44   1
    49    10    45   1
    50    10    46   1
    51    10    47   1
    52    11    48   1
    53    13    49   1
    54    13    50   1
    55    14    51   1
    56    14    52   1
    57    15    53   1
    58    17    54   1
    59    17    55   1
    60    17    56   1
    61    18    57   1
    62    19    58   1
    63    20    59   1
    64    20    60   1
    65    21    61   1
    66    21    62   1
    67    22    63   1
    68    23    64   1
    69    23    65   1
    70    24    66   1
    71    25    67   1
    72    25    68   1
    73    25    69   1
    74    27    70   1
    75    29    71   1
    76    29    72   1
    77    29    73   1
    78    30    74   1
    79    31    75   1
    80    31    76   1
    81    32    77   1
    82    32    78   1
    83    35    79   1
    84    35    80   1
    85    36    81   1
    86    36    82   1
    87    37    83   1
    88    37    84   1
@<TRIPOS>SUBSTRUCTURE
     1  GYN      2

