@<TRIPOS>MOLECULE
2x00_ligand_042
    84    88
SMALL
GAST_HUCK
****
This file was generated by PARSER (from files_GN.cpp)

@<TRIPOS>ATOM
      1 O6         -3.2450   42.8803    5.5282 O.2         1 GYN      -0.3700
      2 C5         -2.5440   41.8378    6.0274 C.2         1 GYN       0.2385
      3 O1         -1.9944   40.8951    5.2383 O.3         1 GYN      -0.2655
      4 C2         -1.2555   39.9017    5.9503 C.3         1 GYN       0.1059
      5 C3         -1.3859   40.3539    7.4364 C.3         1 GYN       0.0041
      6 C4         -2.2271   41.6592    7.4416 C.3         1 GYN       0.0613
      7 C7         -3.4960   41.5911    8.3270 C.3         1 GYN      -0.0438
      8 C8         -1.6897   38.5047    5.6840 C.2         1 GYN      -0.0559
      9 C13        -0.8951   37.4131    5.9074 C.2         1 GYN      -0.0876
     10 C14         0.3392   37.5813    6.7020 C.3         1 GYN      -0.0498
     11 C12        -1.2955   36.0204    5.5013 C.3         1 GYN      -0.0250
     12 C27        -2.5372   35.9355    4.4957 C.3         1 GYN       0.0148
     13 C10        -3.6042   36.9238    5.0824 C.3         1 GYN      -0.0494
     14 C9         -3.0617   38.3657    5.1790 C.3         1 GYN      -0.0395
     15 C15        -0.1377   35.2482    4.9970 C.2         1 GYN      -0.1023
     16 C16         0.5432   34.2236    5.5778 C.2         1 GYN      -0.0548
     17 C19         0.1572   33.7132    6.8970 C.3         1 GYN      -0.0377
     18 C17         1.8371   33.7954    4.9948 C.3         1 GYN       0.0804
     19 O20         2.8485   34.3381    5.8514 O.3         1 GYN      -0.3807
     20 C18         2.1013   32.2678    4.7880 C.3         1 GYN      -0.0158
     21 C21         1.4150   31.5900    3.5661 C.3         1 GYN      -0.0223
     22 C43        -0.1068   31.3288    3.6929 C.3         1 GYN       0.0623
     23 C47        -0.7225   30.5281    2.5161 C.3         1 GYN      -0.0197
     24 C48        -1.3229   29.2660    3.1737 C.3         1 GYN      -0.0066
     25 C49        -0.3811   28.0360    3.0644 C.3         1 GYN      -0.0582
     26 O43        -0.3888   30.5647    4.8816 O.3         1 GYN      -0.3622
     27 C37        -1.5373   29.7218    4.6454 C.3         1 GYN       0.0865
     28 C36        -2.8627   30.3294    4.9109 C.2         1 GYN      -0.0553
     29 C38        -4.0533   29.4841    4.8245 C.3         1 GYN      -0.0379
     30 C35        -2.9669   31.6229    5.2878 C.2         1 GYN      -0.1039
     31 C34        -4.1761   32.4106    5.4756 C.3         1 GYN      -0.0315
     32 C33        -3.8948   33.9476    5.5521 C.3         1 GYN       0.0100
     33 C32        -3.1786   34.5764    4.4214 C.2         1 GYN       0.0383
     34 N31        -3.2927   33.9446    3.3018 N.2         1 GYN      -0.2722
     35 C30        -2.8322   34.2406    2.0260 C.3         1 GYN       0.0432
     36 C46        -1.7461   35.3309    2.0391 C.3         1 GYN      -0.0375
     37 C28        -2.1550   36.4433    3.0343 C.3         1 GYN      -0.0530
     38 H1         -0.2277   40.0400    5.5997 H           1 GYN       0.0753
     39 H2         -0.3938   40.5518    7.8514 H           1 GYN       0.0338
     40 H3         -1.8558   39.5800    8.0497 H           1 GYN       0.0338
     41 H4         -1.6116   42.5034    7.7688 H           1 GYN       0.0553
     42 H5         -4.0505   42.5303    8.2706 H           1 GYN       0.0258
     43 H6         -3.2123   41.4235    9.3670 H           1 GYN       0.0258
     44 H7         -4.1532   40.7802    8.0091 H           1 GYN       0.0258
     45 H8          0.8626   36.6541    6.9174 H           1 GYN       0.0329
     46 H9          0.1100   38.0267    7.6693 H           1 GYN       0.0329
     47 H10         1.0499   38.2150    6.1728 H           1 GYN       0.0329
     48 H11        -1.6235   35.5794    6.4418 H           1 GYN       0.0417
     49 H12        -3.8925   36.6219    6.0942 H           1 GYN       0.0226
     50 H13        -4.5164   36.9221    4.4768 H           1 GYN       0.0226
     51 H14        -3.1200   38.8244    4.1899 H           1 GYN       0.0362
     52 H15        -3.7451   38.9194    5.8297 H           1 GYN       0.0362
     53 H16         0.2685   35.6375    4.1818 H           1 GYN       0.0252
     54 H17        -0.8492   33.3048    6.8723 H           1 GYN       0.0377
     55 H18         0.1870   34.5078    7.6435 H           1 GYN       0.0377
     56 H19         0.8174   32.9265    7.2533 H           1 GYN       0.0377
     57 H20         2.0091   34.2685    4.0234 H           1 GYN       0.0742
     58 H21         3.6966   34.3339    5.3439 H           1 GYN       0.2129
     59 H22         1.8725   31.6987    5.6901 H           1 GYN       0.0312
     60 H23         3.1781   32.1549    4.6277 H           1 GYN       0.0312
     61 H24         1.9069   30.6267    3.4003 H           1 GYN       0.0293
     62 H25         1.5887   32.2059    2.6829 H           1 GYN       0.0293
     63 H26        -0.6046   32.2987    3.7545 H           1 GYN       0.0598
     64 H27         0.0082   30.2859    1.7390 H           1 GYN       0.0295
     65 H28        -1.5219   31.1087    2.0501 H           1 GYN       0.0295
     66 H29        -2.2645   28.9989    2.6835 H           1 GYN       0.0345
     67 H30        -0.8311   27.1738    3.5604 H           1 GYN       0.0235
     68 H31         0.5870   28.2377    3.5284 H           1 GYN       0.0235
     69 H32        -0.2196   27.7774    2.0152 H           1 GYN       0.0235
     70 H33        -1.4395   28.8722    5.3290 H           1 GYN       0.0747
     71 H34        -4.5903   29.4934    5.7764 H           1 GYN       0.0376
     72 H35        -3.8072   28.4426    4.6018 H           1 GYN       0.0376
     73 H36        -4.7159   29.8478    4.0367 H           1 GYN       0.0376
     74 H37        -2.1300   32.1162    5.4407 H           1 GYN       0.0245
     75 H38        -4.6627   32.0907    6.4011 H           1 GYN       0.0369
     76 H39        -4.8699   32.2277    4.6502 H           1 GYN       0.0369
     77 H40        -3.3509   34.1246    6.4799 H           1 GYN       0.0520
     78 H41        -4.8641   34.4416    5.6520 H           1 GYN       0.0520
     79 H42        -3.6826   34.5664    1.4230 H           1 GYN       0.0507
     80 H43        -2.4272   33.3345    1.5757 H           1 GYN       0.0507
     81 H44        -1.6367   35.7508    1.0366 H           1 GYN       0.0277
     82 H45        -0.7926   34.8823    2.3164 H           1 GYN       0.0277
     83 H46        -1.3521   37.1828    3.0731 H           1 GYN       0.0210
     84 H47        -3.0124   36.9446    2.5749 H           1 GYN       0.0210
@<TRIPOS>BOND
     1     1     2   2
     2     2     3   1
     3     2     6   1
     4     3     4   1
     5     4     5   1
     6     4     8   1
     7     5     6   1
     8     6     7   1
     9     8     9   2
    10     8    14   1
    11     9    10   1
    12     9    11   1
    13    11    12   1
    14    11    15   1
    15    12    13   1
    16    12    33   1
    17    12    37   1
    18    13    14   1
    19    15    16   2
    20    16    17   1
    21    16    18   1
    22    18    19   1
    23    18    20   1
    24    20    21   1
    25    21    22   1
    26    22    23   1
    27    22    26   1
    28    23    24   1
    29    24    25   1
    30    24    27   1
    31    26    27   1
    32    27    28   1
    33    28    29   1
    34    28    30   2
    35    30    31   1
    36    31    32   1
    37    32    33   1
    38    33    34   2
    39    34    35   1
    40    35    36   1
    41    36    37   1
    42     4    38   1
    43     5    39   1
    44     5    40   1
    45     6    41   1
    46     7    42   1
    47     7    43   1
    48     7    44   1
    49    10    45   1
    50    10    46   1
    51    10    47   1
    52    11    48   1
    53    13    49   1
    54    13    50   1
    55    14    51   1
    56    14    52   1
    57    15    53   1
    58    17    54   1
    59    17    55   1
    60    17    56   1
    61    18    57   1
    62    19    58   1
    63    20    59   1
    64    20    60   1
    65    21    61   1
    66    21    62   1
    67    22    63   1
    68    23    64   1
    69    23    65   1
    70    24    66   1
    71    25    67   1
    72    25    68   1
    73    25    69   1
    74    27    70   1
    75    29    71   1
    76    29    72   1
    77    29    73   1
    78    30    74   1
    79    31    75   1
    80    31    76   1
    81    32    77   1
    82    32    78   1
    83    35    79   1
    84    35    80   1
    85    36    81   1
    86    36    82   1
    87    37    83   1
    88    37    84   1
@<TRIPOS>SUBSTRUCTURE
     1  GYN      2

