@<TRIPOS>MOLECULE
2x00_ligand_072
    84    88
SMALL
GAST_HUCK
****
This file was generated by PARSER (from files_GN.cpp)

@<TRIPOS>ATOM
      1 O6          3.3445   30.6303    4.7643 O.2         1 GYN      -0.3700
      2 C5          2.2689   30.0225    4.2143 C.2         1 GYN       0.2385
      3 O1          2.3571   28.9032    3.4697 O.3         1 GYN      -0.2655
      4 C2          1.1075   28.3885    3.0116 C.3         1 GYN       0.1059
      5 C3          0.0853   29.4037    3.6384 C.3         1 GYN       0.0041
      6 C4          0.9000   30.4844    4.4000 C.3         1 GYN       0.0613
      7 C7          0.7082   31.9287    3.8694 C.3         1 GYN      -0.0438
      8 C8          1.1795   28.1029    1.5497 C.2         1 GYN      -0.0559
      9 C13         1.9662   27.1053    1.0273 C.2         1 GYN      -0.0876
     10 C14         2.5712   26.1031    1.9278 C.3         1 GYN      -0.0498
     11 C12         2.1771   26.9114   -0.4488 C.3         1 GYN      -0.0250
     12 C27         1.6506   28.0956   -1.3818 C.3         1 GYN       0.0148
     13 C10         0.2328   28.4460   -0.8111 C.3         1 GYN      -0.0494
     14 C9          0.3034   28.8891    0.6711 C.3         1 GYN      -0.0395
     15 C15         3.5935   26.6123   -0.7511 C.2         1 GYN      -0.1023
     16 C16         4.1588   25.4899   -1.2693 C.2         1 GYN      -0.0548
     17 C19         3.3456   24.2933   -1.5040 C.3         1 GYN      -0.0377
     18 C17         5.6371   25.3995   -1.3044 C.3         1 GYN       0.0804
     19 O20         6.0072   24.7117   -0.1077 O.3         1 GYN      -0.3807
     20 C18         6.3533   24.7378   -2.5284 C.3         1 GYN      -0.0158
     21 C21         6.4984   25.6076   -3.8065 C.3         1 GYN      -0.0223
     22 C43         5.1931   25.8672   -4.5996 C.3         1 GYN       0.0623
     23 C47         5.4089   26.6757   -5.9008 C.3         1 GYN      -0.0197
     24 C48         4.8880   25.7577   -7.0249 C.3         1 GYN      -0.0066
     25 C49         6.0323   24.9864   -7.7397 C.3         1 GYN      -0.0582
     26 O43         4.5816   24.6260   -5.0018 O.3         1 GYN      -0.3622
     27 C37         3.9104   24.8158   -6.2662 C.3         1 GYN       0.0865
     28 C36         2.5114   25.3051   -6.2032 C.2         1 GYN      -0.0553
     29 C38         1.7587   25.4598   -7.4468 C.3         1 GYN      -0.0379
     30 C35         1.9310   25.5840   -5.0162 C.2         1 GYN      -0.1039
     31 C34         0.6378   26.2078   -4.7749 C.3         1 GYN      -0.0315
     32 C33         0.4880   26.7448   -3.3120 C.3         1 GYN       0.0100
     33 C32         1.4770   27.7288   -2.8303 C.2         1 GYN       0.0383
     34 N31         2.0729   28.3891   -3.7661 N.2         1 GYN      -0.2722
     35 C30         2.9989   29.4231   -3.7189 C.3         1 GYN       0.0432
     36 C46         3.6693   29.5297   -2.3368 C.3         1 GYN      -0.0375
     37 C28         2.5718   29.3866   -1.2523 C.3         1 GYN      -0.0530
     38 H1          0.9456   27.4339    3.5223 H           1 GYN       0.0753
     39 H2         -0.5655   28.8759    4.3467 H           1 GYN       0.0338
     40 H3         -0.5635   29.8785    2.8965 H           1 GYN       0.0338
     41 H4          0.6657   30.4546    5.4653 H           1 GYN       0.0553
     42 H5          1.2612   32.6352    4.4901 H           1 GYN       0.0258
     43 H6         -0.3485   32.1994    3.8962 H           1 GYN       0.0258
     44 H7          1.0638   32.0135    2.8405 H           1 GYN       0.0258
     45 H8          2.9867   25.2439    1.4081 H           1 GYN       0.0329
     46 H9          1.8315   25.7044    2.6220 H           1 GYN       0.0329
     47 H10         3.3899   26.5554    2.4887 H           1 GYN       0.0329
     48 H11         1.5685   26.0355   -0.6673 H           1 GYN       0.0417
     49 H12        -0.4257   27.5705   -0.8536 H           1 GYN       0.0226
     50 H13        -0.2417   29.2379   -1.3983 H           1 GYN       0.0226
     51 H14         0.6280   29.9333    0.7045 H           1 GYN       0.0362
     52 H15        -0.7213   28.8473    1.0510 H           1 GYN       0.0362
     53 H16         4.2190   27.3159   -0.4357 H           1 GYN       0.0252
     54 H17         2.5061   24.5095   -2.1563 H           1 GYN       0.0377
     55 H18         2.9509   23.9170   -0.5601 H           1 GYN       0.0377
     56 H19         3.8926   23.4771   -1.9664 H           1 GYN       0.0377
     57 H20         6.0894   26.3903   -1.2116 H           1 GYN       0.0742
     58 H21         6.7218   25.2474    0.3049 H           1 GYN       0.2129
     59 H22         5.9100   23.7795   -2.7922 H           1 GYN       0.0312
     60 H23         7.3752   24.5113   -2.2128 H           1 GYN       0.0312
     61 H24         7.2022   25.1034   -4.4745 H           1 GYN       0.0293
     62 H25         6.9428   26.5679   -3.5306 H           1 GYN       0.0293
     63 H26         4.5114   26.4218   -3.9513 H           1 GYN       0.0598
     64 H27         6.4541   26.9547   -6.0505 H           1 GYN       0.0295
     65 H28         4.8143   27.5922   -5.8751 H           1 GYN       0.0295
     66 H29         4.3766   26.3584   -7.7833 H           1 GYN       0.0345
     67 H30         5.6178   24.3312   -8.5088 H           1 GYN       0.0235
     68 H31         6.6017   24.3793   -7.0317 H           1 GYN       0.0235
     69 H32         6.7134   25.6911   -8.2222 H           1 GYN       0.0235
     70 H33         3.8745   23.8338   -6.7469 H           1 GYN       0.0747
     71 H34         0.8249   24.8964   -7.3963 H           1 GYN       0.0376
     72 H35         2.3134   25.0966   -8.3143 H           1 GYN       0.0376
     73 H36         1.5276   26.5127   -7.6174 H           1 GYN       0.0376
     74 H37         2.4504   25.3840   -4.2070 H           1 GYN       0.0245
     75 H38        -0.1479   25.4736   -4.9707 H           1 GYN       0.0369
     76 H39         0.4918   27.0462   -5.4604 H           1 GYN       0.0369
     77 H40         0.4862   25.8773   -2.6534 H           1 GYN       0.0520
     78 H41        -0.5022   27.2019   -3.2422 H           1 GYN       0.0520
     79 H42         2.4839   30.3562   -3.9601 H           1 GYN       0.0507
     80 H43         3.7596   29.2525   -4.4795 H           1 GYN       0.0507
     81 H44         4.1742   30.4938   -2.2405 H           1 GYN       0.0277
     82 H45         4.4257   28.7509   -2.2421 H           1 GYN       0.0277
     83 H46         3.0446   29.4460   -0.2682 H           1 GYN       0.0210
     84 H47         1.9498   30.2773   -1.3480 H           1 GYN       0.0210
@<TRIPOS>BOND
     1     1     2   2
     2     2     3   1
     3     2     6   1
     4     3     4   1
     5     4     5   1
     6     4     8   1
     7     5     6   1
     8     6     7   1
     9     8     9   2
    10     8    14   1
    11     9    10   1
    12     9    11   1
    13    11    12   1
    14    11    15   1
    15    12    13   1
    16    12    33   1
    17    12    37   1
    18    13    14   1
    19    15    16   2
    20    16    17   1
    21    16    18   1
    22    18    19   1
    23    18    20   1
    24    20    21   1
    25    21    22   1
    26    22    23   1
    27    22    26   1
    28    23    24   1
    29    24    25   1
    30    24    27   1
    31    26    27   1
    32    27    28   1
    33    28    29   1
    34    28    30   2
    35    30    31   1
    36    31    32   1
    37    32    33   1
    38    33    34   2
    39    34    35   1
    40    35    36   1
    41    36    37   1
    42     4    38   1
    43     5    39   1
    44     5    40   1
    45     6    41   1
    46     7    42   1
    47     7    43   1
    48     7    44   1
    49    10    45   1
    50    10    46   1
    51    10    47   1
    52    11    48   1
    53    13    49   1
    54    13    50   1
    55    14    51   1
    56    14    52   1
    57    15    53   1
    58    17    54   1
    59    17    55   1
    60    17    56   1
    61    18    57   1
    62    19    58   1
    63    20    59   1
    64    20    60   1
    65    21    61   1
    66    21    62   1
    67    22    63   1
    68    23    64   1
    69    23    65   1
    70    24    66   1
    71    25    67   1
    72    25    68   1
    73    25    69   1
    74    27    70   1
    75    29    71   1
    76    29    72   1
    77    29    73   1
    78    30    74   1
    79    31    75   1
    80    31    76   1
    81    32    77   1
    82    32    78   1
    83    35    79   1
    84    35    80   1
    85    36    81   1
    86    36    82   1
    87    37    83   1
    88    37    84   1
@<TRIPOS>SUBSTRUCTURE
     1  GYN      2

