@<TRIPOS>MOLECULE
2x00_ligand_020
    84    88
SMALL
GAST_HUCK
****
This file was generated by PARSER (from files_GN.cpp)

@<TRIPOS>ATOM
      1 O6         -2.9636   31.7110  -11.3131 O.2         1 GYN      -0.3700
      2 C5         -2.9935   31.7251   -9.9605 C.2         1 GYN       0.2385
      3 O1         -1.9472   32.1628   -9.2249 O.3         1 GYN      -0.2655
      4 C2         -2.2202   32.1554   -7.8261 C.3         1 GYN       0.1059
      5 C3         -3.6331   31.5108   -7.7041 C.3         1 GYN       0.0041
      6 C4         -4.1683   31.3835   -9.1606 C.3         1 GYN       0.0613
      7 C7         -4.7557   29.9868   -9.5023 C.3         1 GYN      -0.0438
      8 C8         -1.1947   31.5226   -6.9530 C.2         1 GYN      -0.0559
      9 C13        -0.6687   30.2747   -7.1484 C.2         1 GYN      -0.0876
     10 C14        -0.7367   29.6654   -8.4923 C.3         1 GYN      -0.0498
     11 C12         0.1079   29.5621   -6.0771 C.3         1 GYN      -0.0250
     12 C27         0.0059   30.1919   -4.6107 C.3         1 GYN       0.0148
     13 C10         0.2202   31.7281   -4.8340 C.3         1 GYN      -0.0494
     14 C9         -0.8442   32.3312   -5.7754 C.3         1 GYN      -0.0395
     15 C15        -0.2185   28.1203   -6.0651 C.2         1 GYN      -0.1023
     16 C16         0.5340   27.0667   -6.4767 C.2         1 GYN      -0.0548
     17 C19         1.8966   27.2536   -6.9840 C.3         1 GYN      -0.0377
     18 C17        -0.1154   25.7490   -6.6554 C.3         1 GYN       0.0804
     19 O20        -0.2289   25.5291   -8.0632 O.3         1 GYN      -0.3807
     20 C18         0.5336   24.4882   -6.0106 C.3         1 GYN      -0.0158
     21 C21         0.4222   24.3258   -4.4691 C.3         1 GYN      -0.0223
     22 C43         1.3499   25.2272   -3.6183 C.3         1 GYN       0.0623
     23 C47         1.3918   24.8656   -2.1111 C.3         1 GYN      -0.0197
     24 C48         2.8680   24.4943   -1.8573 C.3         1 GYN      -0.0066
     25 C49         3.1133   22.9623   -1.9638 C.3         1 GYN      -0.0582
     26 O43         2.7099   25.1315   -4.0873 O.3         1 GYN      -0.3622
     27 C37         3.6054   25.2892   -2.9702 C.3         1 GYN       0.0865
     28 C36         3.9569   26.6847   -2.6109 C.2         1 GYN      -0.0553
     29 C38         4.9153   26.9173   -1.5349 C.3         1 GYN      -0.0379
     30 C35         3.4313   27.7240   -3.2953 C.2         1 GYN      -0.1039
     31 C34         3.5201   29.1456   -2.9951 C.3         1 GYN      -0.0315
     32 C33         2.5107   30.0009   -3.8295 C.3         1 GYN       0.0100
     33 C32         1.0697   29.7112   -3.6665 C.2         1 GYN       0.0383
     34 N31         0.7628   29.1494   -2.5455 N.2         1 GYN      -0.2722
     35 C30        -0.4569   28.7814   -1.9949 C.3         1 GYN       0.0432
     36 C46        -1.5754   28.7426   -3.0489 C.3         1 GYN      -0.0375
     37 C28        -1.4415   29.9807   -3.9714 C.3         1 GYN      -0.0530
     38 H1         -2.3347   33.2213   -7.5831 H           1 GYN       0.0753
     39 H2         -4.2973   32.1492   -7.1026 H           1 GYN       0.0338
     40 H3         -3.5884   30.5264   -7.2160 H           1 GYN       0.0338
     41 H4         -4.9370   32.1489   -9.3378 H           1 GYN       0.0553
     42 H5         -5.0733   29.9622  -10.5534 H           1 GYN       0.0258
     43 H6         -5.6348   29.7971   -8.8721 H           1 GYN       0.0258
     44 H7         -4.0042   29.1996   -9.3334 H           1 GYN       0.0258
     45 H8         -0.2049   28.7189   -8.5721 H           1 GYN       0.0329
     46 H9         -0.2681   30.3283   -9.2263 H           1 GYN       0.0329
     47 H10        -1.7784   29.4703   -8.7603 H           1 GYN       0.0329
     48 H11         1.1374   29.6896   -6.4108 H           1 GYN       0.0417
     49 H12         1.1982   31.9216   -5.2863 H           1 GYN       0.0226
     50 H13         0.1936   32.2629   -3.8841 H           1 GYN       0.0226
     51 H14        -1.7551   32.5170   -5.1975 H           1 GYN       0.0362
     52 H15        -0.4704   33.3027   -6.1108 H           1 GYN       0.0362
     53 H16        -1.1713   27.9342   -5.8608 H           1 GYN       0.0252
     54 H17         2.5240   27.7515   -6.2523 H           1 GYN       0.0377
     55 H18         1.8845   27.8644   -7.8866 H           1 GYN       0.0377
     56 H19         2.3868   26.3163   -7.2419 H           1 GYN       0.0377
     57 H20        -1.1489   25.7588   -6.2956 H           1 GYN       0.0742
     58 H21         0.6825   25.5087   -8.4238 H           1 GYN       0.2129
     59 H22         1.5755   24.3863   -6.3139 H           1 GYN       0.0312
     60 H23         0.0045   23.6279   -6.4301 H           1 GYN       0.0312
     61 H24         0.6587   23.2841   -4.2357 H           1 GYN       0.0293
     62 H25        -0.6122   24.5050   -4.1720 H           1 GYN       0.0293
     63 H26         0.9921   26.2536   -3.7246 H           1 GYN       0.0598
     64 H27         0.7081   24.0555   -1.8418 H           1 GYN       0.0295
     65 H28         1.1287   25.7405   -1.5100 H           1 GYN       0.0295
     66 H29         3.1679   24.8113   -0.8539 H           1 GYN       0.0345
     67 H30         4.1750   22.7368   -1.8486 H           1 GYN       0.0235
     68 H31         2.7846   22.5770   -2.9306 H           1 GYN       0.0235
     69 H32         2.5652   22.4449   -1.1743 H           1 GYN       0.0235
     70 H33         4.5402   24.7907   -3.2425 H           1 GYN       0.0747
     71 H34         5.7582   27.5002   -1.9104 H           1 GYN       0.0376
     72 H35         5.3179   25.9859   -1.1312 H           1 GYN       0.0376
     73 H36         4.4415   27.4605   -0.7149 H           1 GYN       0.0376
     74 H37         2.8828   27.5084   -4.0800 H           1 GYN       0.0245
     75 H38         4.5388   29.4814   -3.1991 H           1 GYN       0.0369
     76 H39         3.3234   29.3126   -1.9323 H           1 GYN       0.0369
     77 H40         2.7892   29.9056   -4.8785 H           1 GYN       0.0520
     78 H41         2.6739   31.0432   -3.5567 H           1 GYN       0.0520
     79 H42        -0.7038   29.5002   -1.2109 H           1 GYN       0.0507
     80 H43        -0.3564   27.7973   -1.5340 H           1 GYN       0.0507
     81 H44        -2.5502   28.7423   -2.5548 H           1 GYN       0.0277
     82 H45        -1.4946   27.8171   -3.6166 H           1 GYN       0.0277
     83 H46        -2.2098   29.9147   -4.7450 H           1 GYN       0.0210
     84 H47        -1.7030   30.8414   -3.3499 H           1 GYN       0.0210
@<TRIPOS>BOND
     1     1     2   2
     2     2     3   1
     3     2     6   1
     4     3     4   1
     5     4     5   1
     6     4     8   1
     7     5     6   1
     8     6     7   1
     9     8     9   2
    10     8    14   1
    11     9    10   1
    12     9    11   1
    13    11    12   1
    14    11    15   1
    15    12    13   1
    16    12    33   1
    17    12    37   1
    18    13    14   1
    19    15    16   2
    20    16    17   1
    21    16    18   1
    22    18    19   1
    23    18    20   1
    24    20    21   1
    25    21    22   1
    26    22    23   1
    27    22    26   1
    28    23    24   1
    29    24    25   1
    30    24    27   1
    31    26    27   1
    32    27    28   1
    33    28    29   1
    34    28    30   2
    35    30    31   1
    36    31    32   1
    37    32    33   1
    38    33    34   2
    39    34    35   1
    40    35    36   1
    41    36    37   1
    42     4    38   1
    43     5    39   1
    44     5    40   1
    45     6    41   1
    46     7    42   1
    47     7    43   1
    48     7    44   1
    49    10    45   1
    50    10    46   1
    51    10    47   1
    52    11    48   1
    53    13    49   1
    54    13    50   1
    55    14    51   1
    56    14    52   1
    57    15    53   1
    58    17    54   1
    59    17    55   1
    60    17    56   1
    61    18    57   1
    62    19    58   1
    63    20    59   1
    64    20    60   1
    65    21    61   1
    66    21    62   1
    67    22    63   1
    68    23    64   1
    69    23    65   1
    70    24    66   1
    71    25    67   1
    72    25    68   1
    73    25    69   1
    74    27    70   1
    75    29    71   1
    76    29    72   1
    77    29    73   1
    78    30    74   1
    79    31    75   1
    80    31    76   1
    81    32    77   1
    82    32    78   1
    83    35    79   1
    84    35    80   1
    85    36    81   1
    86    36    82   1
    87    37    83   1
    88    37    84   1
@<TRIPOS>SUBSTRUCTURE
     1  GYN      2

