@<TRIPOS>MOLECULE
2x00_ligand_017
    84    88
SMALL
GAST_HUCK
****
This file was generated by PARSER (from files_GN.cpp)

@<TRIPOS>ATOM
      1 O6          0.3925   33.1372  -15.7014 O.2         1 GYN      -0.3700
      2 C5         -0.3568   33.2688  -14.5854 C.2         1 GYN       0.2385
      3 O1          0.1113   33.8466  -13.4570 O.3         1 GYN      -0.2655
      4 C2         -0.8396   33.8927  -12.4019 C.3         1 GYN       0.1059
      5 C3         -2.1243   33.2752  -13.0320 C.3         1 GYN       0.0041
      6 C4         -1.7408   32.8116  -14.4635 C.3         1 GYN       0.0613
      7 C7         -1.8658   31.2822  -14.6895 C.3         1 GYN      -0.0438
      8 C8         -0.4852   33.2927  -11.0841 C.2         1 GYN      -0.0559
      9 C13         0.4644   32.3423  -10.8527 C.2         1 GYN      -0.0876
     10 C14         1.5669   32.1568  -11.8101 C.3         1 GYN      -0.0498
     11 C12         0.5357   31.5520   -9.5730 C.3         1 GYN      -0.0250
     12 C27        -0.6636   31.7880   -8.5308 C.3         1 GYN       0.0148
     13 C10        -0.9253   33.3300   -8.5759 C.3         1 GYN      -0.0494
     14 C9         -1.3138   33.8150   -9.9857 C.3         1 GYN      -0.0395
     15 C15         0.7338   30.1207   -9.8981 C.2         1 GYN      -0.1023
     16 C16         1.8146   29.3237   -9.7073 C.2         1 GYN      -0.0548
     17 C19         3.0067   29.7946   -8.9986 C.3         1 GYN      -0.0377
     18 C17         1.8294   27.9610  -10.2830 C.3         1 GYN       0.0804
     19 O20         2.9233   27.8605  -11.1967 O.3         1 GYN      -0.3807
     20 C18         1.8994   26.7939   -9.2526 C.3         1 GYN      -0.0158
     21 C21         0.5804   26.5120   -8.4764 C.3         1 GYN      -0.0223
     22 C43         0.3369   27.3952   -7.2246 C.3         1 GYN       0.0623
     23 C47        -0.9836   27.0710   -6.4849 C.3         1 GYN      -0.0197
     24 C48        -0.5250   26.6417   -5.0789 C.3         1 GYN      -0.0066
     25 C49        -0.4022   25.0988   -4.9404 C.3         1 GYN      -0.0582
     26 O43         1.3941   27.2096   -6.2617 O.3         1 GYN      -0.3622
     27 C37         0.8431   27.3710   -4.9391 C.3         1 GYN       0.0865
     28 C36         0.7586   28.7679   -4.4504 C.2         1 GYN      -0.0553
     29 C38         0.1415   29.0198   -3.1486 C.3         1 GYN      -0.0379
     30 C35         1.3147   29.7824   -5.1518 C.2         1 GYN      -0.1039
     31 C34         1.1038   31.2127   -4.9792 C.3         1 GYN      -0.0315
     32 C33         0.7740   31.9341   -6.3248 C.3         1 GYN       0.0100
     33 C32        -0.4065   31.4693   -7.0806 C.2         1 GYN       0.0383
     34 N31        -1.3984   31.1678   -6.3141 N.2         1 GYN      -0.2722
     35 C30        -2.7524   30.9315   -6.5707 C.3         1 GYN       0.0432
     36 C46        -3.1694   31.1879   -8.0386 C.3         1 GYN      -0.0375
     37 C28        -1.9551   30.9726   -8.9724 C.3         1 GYN      -0.0530
     38 H1         -0.9967   34.9678  -12.2752 H           1 GYN       0.0753
     39 H2         -2.9106   34.0344  -13.0906 H           1 GYN       0.0338
     40 H3         -2.5131   32.4410  -12.4430 H           1 GYN       0.0338
     41 H4         -2.3476   33.3353  -15.2111 H           1 GYN       0.0553
     42 H5         -1.5187   31.0128  -15.6872 H           1 GYN       0.0258
     43 H6         -2.9080   30.9770  -14.5949 H           1 GYN       0.0258
     44 H7         -1.2753   30.7343  -13.9549 H           1 GYN       0.0258
     45 H8          2.3603   31.5070  -11.4460 H           1 GYN       0.0329
     46 H9          2.0439   33.1122  -12.0255 H           1 GYN       0.0329
     47 H10         1.1910   31.7104  -12.7271 H           1 GYN       0.0329
     48 H11         1.4382   31.9340   -9.1045 H           1 GYN       0.0417
     49 H12        -0.0097   33.8594   -8.2936 H           1 GYN       0.0226
     50 H13        -1.7015   33.6388   -7.8700 H           1 GYN       0.0226
     51 H14        -2.3631   33.5742  -10.1685 H           1 GYN       0.0362
     52 H15        -1.2394   34.9058   -9.9613 H           1 GYN       0.0362
     53 H16        -0.0077   29.7335  -10.4343 H           1 GYN       0.0252
     54 H17         3.4363   30.6668   -9.4922 H           1 GYN       0.0377
     55 H18         3.7921   29.0386   -8.9471 H           1 GYN       0.0377
     56 H19         2.7486   30.0629   -7.9794 H           1 GYN       0.0377
     57 H20         0.9453   27.7699  -10.9006 H           1 GYN       0.0742
     58 H21         2.6910   28.4807  -11.9238 H           1 GYN       0.2129
     59 H22         2.7232   26.9403   -8.5532 H           1 GYN       0.0312
     60 H23         2.1297   25.8840   -9.8147 H           1 GYN       0.0312
     61 H24         0.5921   25.4666   -8.1519 H           1 GYN       0.0293
     62 H25        -0.2647   26.6264   -9.1606 H           1 GYN       0.0293
     63 H26         0.3210   28.4434   -7.5333 H           1 GYN       0.0598
     64 H27        -1.5813   26.3019   -6.9784 H           1 GYN       0.0295
     65 H28        -1.5943   27.9722   -6.4106 H           1 GYN       0.0295
     66 H29        -1.2535   26.9780   -4.3365 H           1 GYN       0.0345
     67 H30        -0.0322   24.8365   -3.9492 H           1 GYN       0.0235
     68 H31         0.2793   24.6879   -5.6870 H           1 GYN       0.0235
     69 H32        -1.3816   24.6373   -5.0705 H           1 GYN       0.0235
     70 H33         1.4932   26.8308   -4.2454 H           1 GYN       0.0747
     71 H34         0.8089   29.6147   -2.5199 H           1 GYN       0.0376
     72 H35        -0.0684   28.0978   -2.6021 H           1 GYN       0.0376
     73 H36        -0.8011   29.5559   -3.2776 H           1 GYN       0.0376
     74 H37         1.9437   29.5436   -5.8779 H           1 GYN       0.0245
     75 H38         2.0213   31.6397   -4.5739 H           1 GYN       0.0369
     76 H39         0.3117   31.4343   -4.2624 H           1 GYN       0.0369
     77 H40         1.6717   31.8918   -6.9355 H           1 GYN       0.0520
     78 H41         0.6156   32.9886   -6.0867 H           1 GYN       0.0520
     79 H42        -3.3406   31.5734   -5.9132 H           1 GYN       0.0507
     80 H43        -2.9692   29.8971   -6.3035 H           1 GYN       0.0507
     81 H44        -3.5458   32.2060   -8.1504 H           1 GYN       0.0277
     82 H45        -3.9805   30.5103   -8.3187 H           1 GYN       0.0277
     83 H46        -1.7437   29.9007   -8.9356 H           1 GYN       0.0210
     84 H47        -2.2468   31.1980  -10.0001 H           1 GYN       0.0210
@<TRIPOS>BOND
     1     1     2   2
     2     2     3   1
     3     2     6   1
     4     3     4   1
     5     4     5   1
     6     4     8   1
     7     5     6   1
     8     6     7   1
     9     8     9   2
    10     8    14   1
    11     9    10   1
    12     9    11   1
    13    11    12   1
    14    11    15   1
    15    12    13   1
    16    12    33   1
    17    12    37   1
    18    13    14   1
    19    15    16   2
    20    16    17   1
    21    16    18   1
    22    18    19   1
    23    18    20   1
    24    20    21   1
    25    21    22   1
    26    22    23   1
    27    22    26   1
    28    23    24   1
    29    24    25   1
    30    24    27   1
    31    26    27   1
    32    27    28   1
    33    28    29   1
    34    28    30   2
    35    30    31   1
    36    31    32   1
    37    32    33   1
    38    33    34   2
    39    34    35   1
    40    35    36   1
    41    36    37   1
    42     4    38   1
    43     5    39   1
    44     5    40   1
    45     6    41   1
    46     7    42   1
    47     7    43   1
    48     7    44   1
    49    10    45   1
    50    10    46   1
    51    10    47   1
    52    11    48   1
    53    13    49   1
    54    13    50   1
    55    14    51   1
    56    14    52   1
    57    15    53   1
    58    17    54   1
    59    17    55   1
    60    17    56   1
    61    18    57   1
    62    19    58   1
    63    20    59   1
    64    20    60   1
    65    21    61   1
    66    21    62   1
    67    22    63   1
    68    23    64   1
    69    23    65   1
    70    24    66   1
    71    25    67   1
    72    25    68   1
    73    25    69   1
    74    27    70   1
    75    29    71   1
    76    29    72   1
    77    29    73   1
    78    30    74   1
    79    31    75   1
    80    31    76   1
    81    32    77   1
    82    32    78   1
    83    35    79   1
    84    35    80   1
    85    36    81   1
    86    36    82   1
    87    37    83   1
    88    37    84   1
@<TRIPOS>SUBSTRUCTURE
     1  GYN      2

