@<TRIPOS>MOLECULE
2x00_ligand_080
    84    88
SMALL
GAST_HUCK
****
This file was generated by PARSER (from files_GN.cpp)

@<TRIPOS>ATOM
      1 O6          2.9222   30.2706    4.4996 O.2         1 GYN      -0.3700
      2 C5          1.6350   30.6733    4.5814 C.2         1 GYN       0.2385
      3 O1          0.6306   30.0053    3.9877 O.3         1 GYN      -0.2655
      4 C2         -0.6737   30.5546    4.1863 C.3         1 GYN       0.1059
      5 C3         -0.3498   31.8114    5.0664 C.3         1 GYN       0.0041
      6 C4          1.1808   31.8460    5.3196 C.3         1 GYN       0.0613
      7 C7          1.8775   33.1345    4.8112 C.3         1 GYN      -0.0438
      8 C8         -1.4731   30.7422    2.9388 C.2         1 GYN      -0.0559
      9 C13        -1.3132   30.0088    1.7960 C.2         1 GYN      -0.0876
     10 C14        -0.6881   28.6742    1.8570 C.3         1 GYN      -0.0498
     11 C12        -1.9044   30.4119    0.4712 C.3         1 GYN      -0.0250
     12 C27        -2.6876   31.8112    0.4807 C.3         1 GYN       0.0148
     13 C10        -3.5326   31.7809    1.8033 C.3         1 GYN      -0.0494
     14 C9         -2.6319   31.6487    3.0575 C.3         1 GYN      -0.0395
     15 C15        -0.8515   30.3098   -0.5689 C.2         1 GYN      -0.1023
     16 C16        -0.6851   29.4051   -1.5707 C.2         1 GYN      -0.0548
     17 C19        -1.6926   28.3801   -1.8588 C.3         1 GYN      -0.0377
     18 C17         0.6290   29.2991   -2.2568 C.3         1 GYN       0.0804
     19 O20         1.1898   28.0302   -1.9077 O.3         1 GYN      -0.3807
     20 C18         0.6882   29.4186   -3.8146 C.3         1 GYN      -0.0158
     21 C21         0.4978   30.8257   -4.4506 C.3         1 GYN      -0.0223
     22 C43        -0.9527   31.3701   -4.4281 C.3         1 GYN       0.0623
     23 C47        -1.1638   32.7028   -5.1844 C.3         1 GYN      -0.0197
     24 C48        -2.2891   32.4152   -6.2054 C.3         1 GYN      -0.0066
     25 C49        -1.7630   32.2724   -7.6597 C.3         1 GYN      -0.0582
     26 O43        -1.8406   30.4152   -5.0348 O.3         1 GYN      -0.3622
     27 C37        -2.9324   31.1030   -5.6714 C.3         1 GYN       0.0865
     28 C36        -4.1449   31.3133   -4.8504 C.2         1 GYN      -0.0553
     29 C38        -5.3636   31.7699   -5.5163 C.3         1 GYN      -0.0379
     30 C35        -4.1325   31.0757   -3.5187 C.2         1 GYN      -0.1039
     31 C34        -5.2045   31.2796   -2.5592 C.3         1 GYN      -0.0315
     32 C33        -4.7282   31.1356   -1.0717 C.3         1 GYN       0.0100
     33 C32        -3.6631   32.0599   -0.6388 C.2         1 GYN       0.0383
     34 N31        -3.8569   33.2617   -1.0755 N.2         1 GYN      -0.2722
     35 C30        -3.2484   34.4771   -0.7810 C.3         1 GYN       0.0432
     36 C46        -2.3383   34.4096    0.4652 C.3         1 GYN      -0.0375
     37 C28        -1.6575   33.0209    0.5086 C.3         1 GYN      -0.0530
     38 H1         -1.2149   29.8308    4.8029 H           1 GYN       0.0753
     39 H2         -0.8844   31.7468    6.0191 H           1 GYN       0.0338
     40 H3         -0.6508   32.7445    4.5920 H           1 GYN       0.0338
     41 H4          1.4014   31.7049    6.3819 H           1 GYN       0.0553
     42 H5          2.9584   33.0663    4.9494 H           1 GYN       0.0258
     43 H6          1.5134   33.9978    5.3708 H           1 GYN       0.0258
     44 H7          1.6699   33.2935    3.7497 H           1 GYN       0.0258
     45 H8         -0.8380   28.1869    2.8222 H           1 GYN       0.0329
     46 H9          0.3804   28.7564    1.6543 H           1 GYN       0.0329
     47 H10        -1.1105   27.9922    1.1255 H           1 GYN       0.0329
     48 H11        -2.6491   29.6452    0.2770 H           1 GYN       0.0417
     49 H12        -4.2142   30.9278    1.7900 H           1 GYN       0.0226
     50 H13        -4.1582   32.6714    1.9060 H           1 GYN       0.0226
     51 H14        -2.2986   32.6571    3.2961 H           1 GYN       0.0362
     52 H15        -3.2576   31.3173    3.8905 H           1 GYN       0.0362
     53 H16        -0.0839   30.9143   -0.4051 H           1 GYN       0.0252
     54 H17        -1.8425   27.7351   -0.9962 H           1 GYN       0.0377
     55 H18        -1.4087   27.7310   -2.6875 H           1 GYN       0.0377
     56 H19        -2.6459   28.8309   -2.1137 H           1 GYN       0.0377
     57 H20         1.3434   30.0322   -1.8741 H           1 GYN       0.0742
     58 H21         1.4658   28.1095   -0.9704 H           1 GYN       0.2129
     59 H22        -0.0059   28.7147   -4.2763 H           1 GYN       0.0312
     60 H23         1.6905   29.0954   -4.1157 H           1 GYN       0.0312
     61 H24         0.8190   30.7676   -5.4950 H           1 GYN       0.0293
     62 H25         1.1563   31.5403   -3.9526 H           1 GYN       0.0293
     63 H26        -1.2236   31.5196   -3.3814 H           1 GYN       0.0598
     64 H27        -0.2480   33.0551   -5.6681 H           1 GYN       0.0295
     65 H28        -1.4916   33.4764   -4.4826 H           1 GYN       0.0295
     66 H29        -3.0047   33.2445   -6.2015 H           1 GYN       0.0345
     67 H30        -2.5874   32.0270   -8.3329 H           1 GYN       0.0235
     68 H31        -1.0102   31.4839   -7.7264 H           1 GYN       0.0235
     69 H32        -1.3195   33.2127   -7.9939 H           1 GYN       0.0235
     70 H33        -3.2310   30.4539   -6.5006 H           1 GYN       0.0747
     71 H34        -6.1701   31.0512   -5.3576 H           1 GYN       0.0376
     72 H35        -5.2295   31.8785   -6.5954 H           1 GYN       0.0376
     73 H36        -5.6684   32.7415   -5.1235 H           1 GYN       0.0376
     74 H37        -3.2971   30.7362   -3.1324 H           1 GYN       0.0245
     75 H38        -5.9931   30.5496   -2.7566 H           1 GYN       0.0369
     76 H39        -5.6354   32.2748   -2.6963 H           1 GYN       0.0369
     77 H40        -4.4350   30.0984   -0.9266 H           1 GYN       0.0520
     78 H41        -5.5974   31.3057   -0.4312 H           1 GYN       0.0520
     79 H42        -4.0254   35.2275   -0.6225 H           1 GYN       0.0507
     80 H43        -2.6649   34.7759   -1.6548 H           1 GYN       0.0507
     81 H44        -2.9266   34.5728    1.3702 H           1 GYN       0.0277
     82 H45        -1.5885   35.2008    0.4161 H           1 GYN       0.0277
     83 H46        -1.0293   32.9765   -0.3787 H           1 GYN       0.0210
     84 H47        -0.9788   32.9805    1.3616 H           1 GYN       0.0210
@<TRIPOS>BOND
     1     1     2   2
     2     2     3   1
     3     2     6   1
     4     3     4   1
     5     4     5   1
     6     4     8   1
     7     5     6   1
     8     6     7   1
     9     8     9   2
    10     8    14   1
    11     9    10   1
    12     9    11   1
    13    11    12   1
    14    11    15   1
    15    12    13   1
    16    12    33   1
    17    12    37   1
    18    13    14   1
    19    15    16   2
    20    16    17   1
    21    16    18   1
    22    18    19   1
    23    18    20   1
    24    20    21   1
    25    21    22   1
    26    22    23   1
    27    22    26   1
    28    23    24   1
    29    24    25   1
    30    24    27   1
    31    26    27   1
    32    27    28   1
    33    28    29   1
    34    28    30   2
    35    30    31   1
    36    31    32   1
    37    32    33   1
    38    33    34   2
    39    34    35   1
    40    35    36   1
    41    36    37   1
    42     4    38   1
    43     5    39   1
    44     5    40   1
    45     6    41   1
    46     7    42   1
    47     7    43   1
    48     7    44   1
    49    10    45   1
    50    10    46   1
    51    10    47   1
    52    11    48   1
    53    13    49   1
    54    13    50   1
    55    14    51   1
    56    14    52   1
    57    15    53   1
    58    17    54   1
    59    17    55   1
    60    17    56   1
    61    18    57   1
    62    19    58   1
    63    20    59   1
    64    20    60   1
    65    21    61   1
    66    21    62   1
    67    22    63   1
    68    23    64   1
    69    23    65   1
    70    24    66   1
    71    25    67   1
    72    25    68   1
    73    25    69   1
    74    27    70   1
    75    29    71   1
    76    29    72   1
    77    29    73   1
    78    30    74   1
    79    31    75   1
    80    31    76   1
    81    32    77   1
    82    32    78   1
    83    35    79   1
    84    35    80   1
    85    36    81   1
    86    36    82   1
    87    37    83   1
    88    37    84   1
@<TRIPOS>SUBSTRUCTURE
     1  GYN      2

