@<TRIPOS>MOLECULE
2x00_ligand_000
    84    88
SMALL
GAST_HUCK
****
This file was generated by PARSER (from files_GN.cpp)

@<TRIPOS>ATOM
      1 O6          4.8921   27.8284  -11.9014 O.2         1 GYN      -0.3700
      2 C5          5.4621   26.9745  -11.0243 C.2         1 GYN       0.2385
      3 O1          4.8108   25.9247  -10.4849 O.3         1 GYN      -0.2655
      4 C2          5.5951   25.1050   -9.6205 C.3         1 GYN       0.1059
      5 C3          6.9706   25.8487   -9.6430 C.3         1 GYN       0.0041
      6 C4          6.8585   27.0455  -10.6184 C.3         1 GYN       0.0613
      7 C7          7.2115   28.4123   -9.9754 C.3         1 GYN      -0.0438
      8 C8          5.0556   24.8094   -8.2634 C.2         1 GYN      -0.0559
      9 C13         3.8060   25.1225   -7.8186 C.2         1 GYN      -0.0876
     10 C14         2.7035   25.2944   -8.7858 C.3         1 GYN      -0.0498
     11 C12         3.4301   25.0939   -6.3620 C.3         1 GYN      -0.0250
     12 C27         4.6404   24.7749   -5.3607 C.3         1 GYN       0.0148
     13 C10         5.4191   23.5920   -6.0383 C.3         1 GYN      -0.0494
     14 C9          5.9538   23.9863   -7.4291 C.3         1 GYN      -0.0395
     15 C15         2.6813   26.3330   -6.0405 C.2         1 GYN      -0.1023
     16 C16         1.3497   26.5012   -5.7964 C.2         1 GYN      -0.0548
     17 C19         0.4696   25.3574   -5.5487 C.3         1 GYN      -0.0377
     18 C17         0.7399   27.8405   -5.9900 C.3         1 GYN       0.0804
     19 O20        -0.0580   27.7763   -7.1758 O.3         1 GYN      -0.3807
     20 C18        -0.1484   28.4528   -4.8580 C.3         1 GYN      -0.0158
     21 C21         0.5810   29.0824   -3.6398 C.3         1 GYN      -0.0223
     22 C43         1.2960   28.0692   -2.7138 C.3         1 GYN       0.0623
     23 C47         1.8738   28.6830   -1.4255 C.3         1 GYN      -0.0197
     24 C48         2.0550   27.4380   -0.5409 C.3         1 GYN      -0.0066
     25 C49         2.0820   27.7421    0.9778 C.3         1 GYN      -0.0582
     26 O43         0.3965   27.0462   -2.2578 O.3         1 GYN      -0.3622
     27 C37         0.8762   26.5286   -0.9993 C.3         1 GYN       0.0865
     28 C36         1.2323   25.0992   -1.0924 C.2         1 GYN      -0.0553
     29 C38         0.8182   24.1714   -0.0412 C.3         1 GYN      -0.0379
     30 C35         1.9779   24.6812   -2.1380 C.2         1 GYN      -0.1039
     31 C34         2.5054   23.3453   -2.3787 C.3         1 GYN      -0.0315
     32 C33         3.3231   23.1994   -3.7027 C.3         1 GYN       0.0100
     33 C32         4.2985   24.2626   -3.9959 C.2         1 GYN       0.0383
     34 N31         5.0758   24.5142   -2.9950 N.2         1 GYN      -0.2722
     35 C30         6.2144   25.3079   -2.8735 C.3         1 GYN       0.0432
     36 C46         6.7406   25.8518   -4.2222 C.3         1 GYN      -0.0375
     37 C28         5.5502   26.0670   -5.1839 C.3         1 GYN      -0.0530
     38 H1          5.6942   24.1499  -10.1457 H           1 GYN       0.0753
     39 H2          7.7620   25.1632   -9.9638 H           1 GYN       0.0338
     40 H3          7.2448   26.2365   -8.6613 H           1 GYN       0.0338
     41 H4          7.5019   26.8814  -11.4864 H           1 GYN       0.0553
     42 H5          7.1040   29.2169  -10.7049 H           1 GYN       0.0258
     43 H6          8.2458   28.4059   -9.6222 H           1 GYN       0.0258
     44 H7          6.5563   28.6155   -9.1258 H           1 GYN       0.0258
     45 H8          2.7615   24.5482   -9.5824 H           1 GYN       0.0329
     46 H9          2.7220   26.2967   -9.2132 H           1 GYN       0.0329
     47 H10         1.7224   25.1687   -8.3336 H           1 GYN       0.0329
     48 H11         2.7532   24.2478   -6.3071 H           1 GYN       0.0417
     49 H12         4.7538   22.7300   -6.1704 H           1 GYN       0.0226
     50 H13         6.2633   23.2501   -5.4281 H           1 GYN       0.0226
     51 H14         6.8964   24.5035   -7.2469 H           1 GYN       0.0362
     52 H15         6.1971   23.0650   -7.9681 H           1 GYN       0.0362
     53 H16         3.2031   27.1650   -6.1924 H           1 GYN       0.0252
     54 H17         0.4646   24.6742   -6.3964 H           1 GYN       0.0377
     55 H18        -0.5658   25.6481   -5.3787 H           1 GYN       0.0377
     56 H19         0.7981   24.8135   -4.6683 H           1 GYN       0.0377
     57 H20         1.5012   28.5931   -6.2165 H           1 GYN       0.0742
     58 H21        -0.8705   27.2843   -6.9281 H           1 GYN       0.2129
     59 H22        -0.8793   27.7252   -4.5031 H           1 GYN       0.0312
     60 H23        -0.7287   29.2645   -5.3092 H           1 GYN       0.0312
     61 H24        -0.1666   29.6203   -3.0485 H           1 GYN       0.0293
     62 H25         1.3081   29.8179   -3.9951 H           1 GYN       0.0293
     63 H26         2.1141   27.6160   -3.2804 H           1 GYN       0.0598
     64 H27         1.1597   29.3795   -0.9755 H           1 GYN       0.0295
     65 H28         2.8204   29.1986   -1.6094 H           1 GYN       0.0295
     66 H29         3.0156   26.9791   -0.8050 H           1 GYN       0.0345
     67 H30         2.2133   26.8159    1.5396 H           1 GYN       0.0235
     68 H31         1.1525   28.2170    1.2971 H           1 GYN       0.0235
     69 H32         2.9132   28.4097    1.2089 H           1 GYN       0.0235
     70 H33         0.0327   26.6645   -0.3150 H           1 GYN       0.0747
     71 H34         0.1872   23.3866   -0.4632 H           1 GYN       0.0376
     72 H35         0.2523   24.6602    0.7540 H           1 GYN       0.0376
     73 H36         1.6955   23.7127    0.4198 H           1 GYN       0.0376
     74 H37         2.2260   25.3633   -2.8089 H           1 GYN       0.0245
     75 H38         1.6766   22.6329   -2.4088 H           1 GYN       0.0369
     76 H39         3.1499   23.0703   -1.5408 H           1 GYN       0.0369
     77 H40         2.6104   23.0718   -4.5116 H           1 GYN       0.0520
     78 H41         3.8793   22.2622   -3.6449 H           1 GYN       0.0520
     79 H42         6.9971   24.7189   -2.3921 H           1 GYN       0.0507
     80 H43         5.9642   26.1409   -2.2136 H           1 GYN       0.0507
     81 H44         7.4518   25.1484   -4.6590 H           1 GYN       0.0277
     82 H45         7.2660   26.7973   -4.0636 H           1 GYN       0.0277
     83 H46         4.9575   26.8741   -4.7458 H           1 GYN       0.0210
     84 H47         5.9234   26.4380   -6.1397 H           1 GYN       0.0210
@<TRIPOS>BOND
     1     1     2   2
     2     2     3   1
     3     2     6   1
     4     3     4   1
     5     4     5   1
     6     4     8   1
     7     5     6   1
     8     6     7   1
     9     8     9   2
    10     8    14   1
    11     9    10   1
    12     9    11   1
    13    11    12   1
    14    11    15   1
    15    12    13   1
    16    12    33   1
    17    12    37   1
    18    13    14   1
    19    15    16   2
    20    16    17   1
    21    16    18   1
    22    18    19   1
    23    18    20   1
    24    20    21   1
    25    21    22   1
    26    22    23   1
    27    22    26   1
    28    23    24   1
    29    24    25   1
    30    24    27   1
    31    26    27   1
    32    27    28   1
    33    28    29   1
    34    28    30   2
    35    30    31   1
    36    31    32   1
    37    32    33   1
    38    33    34   2
    39    34    35   1
    40    35    36   1
    41    36    37   1
    42     4    38   1
    43     5    39   1
    44     5    40   1
    45     6    41   1
    46     7    42   1
    47     7    43   1
    48     7    44   1
    49    10    45   1
    50    10    46   1
    51    10    47   1
    52    11    48   1
    53    13    49   1
    54    13    50   1
    55    14    51   1
    56    14    52   1
    57    15    53   1
    58    17    54   1
    59    17    55   1
    60    17    56   1
    61    18    57   1
    62    19    58   1
    63    20    59   1
    64    20    60   1
    65    21    61   1
    66    21    62   1
    67    22    63   1
    68    23    64   1
    69    23    65   1
    70    24    66   1
    71    25    67   1
    72    25    68   1
    73    25    69   1
    74    27    70   1
    75    29    71   1
    76    29    72   1
    77    29    73   1
    78    30    74   1
    79    31    75   1
    80    31    76   1
    81    32    77   1
    82    32    78   1
    83    35    79   1
    84    35    80   1
    85    36    81   1
    86    36    82   1
    87    37    83   1
    88    37    84   1
@<TRIPOS>SUBSTRUCTURE
     1  GYN      2

