@<TRIPOS>MOLECULE
2x00_ligand_051
    84    88
SMALL
GAST_HUCK
****
This file was generated by PARSER (from files_GN.cpp)

@<TRIPOS>ATOM
      1 O6         10.8809   25.3173  -14.6234 O.2         1 GYN      -0.3700
      2 C5          9.6180   25.5884  -14.2198 C.2         1 GYN       0.2385
      3 O1          9.3535   26.2878  -13.1031 O.3         1 GYN      -0.2655
      4 C2          7.9555   26.4554  -12.8356 C.3         1 GYN       0.1059
      5 C3          7.2853   25.7601  -14.0573 C.3         1 GYN       0.0041
      6 C4          8.4172   25.1812  -14.9467 C.3         1 GYN       0.0613
      7 C7          8.3278   23.6481  -15.1450 C.3         1 GYN      -0.0438
      8 C8          7.5095   25.9382  -11.5126 C.2         1 GYN      -0.0559
      9 C13         6.3327   26.3031  -10.9134 C.2         1 GYN      -0.0876
     10 C14         5.3602   27.1290  -11.6661 C.3         1 GYN      -0.0498
     11 C12         5.9434   25.8229   -9.5410 C.3         1 GYN      -0.0250
     12 C27         7.1797   25.3401   -8.6518 C.3         1 GYN       0.0148
     13 C10         7.9738   24.3410   -9.5617 C.3         1 GYN      -0.0494
     14 C9          8.4353   24.9820  -10.8858 C.3         1 GYN      -0.0395
     15 C15         5.0726   26.7931   -8.8233 C.2         1 GYN      -0.1023
     16 C16         3.7444   26.7208   -8.5412 C.2         1 GYN      -0.0548
     17 C19         2.9829   25.4867   -8.7284 C.3         1 GYN      -0.0377
     18 C17         2.9958   27.9460   -8.1766 C.3         1 GYN       0.0804
     19 O20         2.0482   28.2195   -9.2145 O.3         1 GYN      -0.3807
     20 C18         2.2623   27.9428   -6.7965 C.3         1 GYN      -0.0158
     21 C21         3.1392   28.2701   -5.5562 C.3         1 GYN      -0.0223
     22 C43         4.0303   27.1119   -5.0378 C.3         1 GYN       0.0623
     23 C47         5.0039   27.5458   -3.9202 C.3         1 GYN      -0.0197
     24 C48         4.8491   26.4726   -2.8230 C.3         1 GYN      -0.0066
     25 C49         4.1537   27.0259   -1.5486 C.3         1 GYN      -0.0582
     26 O43         3.2205   26.0715   -4.4659 O.3         1 GYN      -0.3622
     27 C37         4.0215   25.3449   -3.5136 C.3         1 GYN       0.0865
     28 C36         4.8118   24.2172   -4.0600 C.2         1 GYN      -0.0553
     29 C38         5.6805   23.4752   -3.1445 C.3         1 GYN      -0.0379
     30 C35         4.6493   23.8078   -5.3420 C.2         1 GYN      -0.1039
     31 C34         5.4234   22.8096   -6.0724 C.3         1 GYN      -0.0315
     32 C33         6.0211   23.3423   -7.4121 C.3         1 GYN       0.0100
     33 C32         6.8026   24.5910   -7.4000 C.2         1 GYN       0.0383
     34 N31         7.3774   24.8401   -6.2735 N.2         1 GYN      -0.2722
     35 C30         8.3510   25.7757   -5.9323 C.3         1 GYN       0.0432
     36 C46         9.1366   26.2609   -7.1691 C.3         1 GYN      -0.0375
     37 C28         8.1090   26.5764   -8.2789 C.3         1 GYN      -0.0530
     38 H1          7.7936   27.5364  -12.8748 H           1 GYN       0.0753
     39 H2          6.7059   26.4887  -14.6285 H           1 GYN       0.0338
     40 H3          6.5960   24.9717  -13.7347 H           1 GYN       0.0338
     41 H4          8.4194   25.6672  -15.9293 H           1 GYN       0.0553
     42 H5          9.1518   23.2872  -15.7650 H           1 GYN       0.0258
     43 H6          7.3883   23.3973  -15.6426 H           1 GYN       0.0258
     44 H7          8.3608   23.1308  -14.1828 H           1 GYN       0.0258
     45 H8          4.3688   27.1739  -11.2191 H           1 GYN       0.0329
     46 H9          5.1912   26.7432  -12.6682 H           1 GYN       0.0329
     47 H10         5.7240   28.1538  -11.7362 H           1 GYN       0.0329
     48 H11         5.3508   24.9376   -9.7648 H           1 GYN       0.0417
     49 H12         7.3386   23.4924   -9.8315 H           1 GYN       0.0226
     50 H13         8.8430   23.9317   -9.0414 H           1 GYN       0.0226
     51 H14         9.3878   25.4836  -10.7003 H           1 GYN       0.0362
     52 H15         8.6395   24.1699  -11.5881 H           1 GYN       0.0362
     53 H16         5.4897   27.6825   -8.6901 H           1 GYN       0.0252
     54 H17         3.0484   25.1421   -9.7591 H           1 GYN       0.0377
     55 H18         1.9227   25.5949   -8.5004 H           1 GYN       0.0377
     56 H19         3.3658   24.7177   -8.0697 H           1 GYN       0.0377
     57 H20         3.6428   28.8266   -8.1848 H           1 GYN       0.0742
     58 H21         1.3687   27.5154   -9.1623 H           1 GYN       0.2129
     59 H22         1.7392   26.9993   -6.6307 H           1 GYN       0.0312
     60 H23         1.4921   28.7198   -6.8379 H           1 GYN       0.0312
     61 H24         2.4751   28.5694   -4.7391 H           1 GYN       0.0293
     62 H25         3.7679   29.1321   -5.7869 H           1 GYN       0.0293
     63 H26         4.6085   26.7032   -5.8702 H           1 GYN       0.0598
     64 H27         4.7808   28.5477   -3.5418 H           1 GYN       0.0295
     65 H28         6.0264   27.5560   -4.3011 H           1 GYN       0.0295
     66 H29         5.8445   26.1316   -2.5231 H           1 GYN       0.0345
     67 H30         4.0623   26.2381   -0.7987 H           1 GYN       0.0235
     68 H31         3.1572   27.4052   -1.7848 H           1 GYN       0.0235
     69 H32         4.7445   27.8375   -1.1204 H           1 GYN       0.0235
     70 H33         3.3226   24.8982   -2.8004 H           1 GYN       0.0747
     71 H34         5.4081   22.4189   -3.1401 H           1 GYN       0.0376
     72 H35         5.6000   23.8232   -2.1139 H           1 GYN       0.0376
     73 H36         6.7248   23.5765   -3.4481 H           1 GYN       0.0376
     74 H37         3.9183   24.2194   -5.8663 H           1 GYN       0.0245
     75 H38         4.7531   21.9768   -6.3042 H           1 GYN       0.0369
     76 H39         6.2421   22.4001   -5.4780 H           1 GYN       0.0369
     77 H40         5.2039   23.4194   -8.1209 H           1 GYN       0.0520
     78 H41         6.6725   22.5502   -7.7878 H           1 GYN       0.0520
     79 H42         9.0428   25.3302   -5.2188 H           1 GYN       0.0507
     80 H43         7.8696   26.6179   -5.4364 H           1 GYN       0.0507
     81 H44         9.8342   25.4908   -7.5044 H           1 GYN       0.0277
     82 H45         9.7150   27.1504   -6.9096 H           1 GYN       0.0277
     83 H46         7.5075   27.3931   -7.8934 H           1 GYN       0.0210
     84 H47         8.6365   26.9894   -9.1367 H           1 GYN       0.0210
@<TRIPOS>BOND
     1     1     2   2
     2     2     3   1
     3     2     6   1
     4     3     4   1
     5     4     5   1
     6     4     8   1
     7     5     6   1
     8     6     7   1
     9     8     9   2
    10     8    14   1
    11     9    10   1
    12     9    11   1
    13    11    12   1
    14    11    15   1
    15    12    13   1
    16    12    33   1
    17    12    37   1
    18    13    14   1
    19    15    16   2
    20    16    17   1
    21    16    18   1
    22    18    19   1
    23    18    20   1
    24    20    21   1
    25    21    22   1
    26    22    23   1
    27    22    26   1
    28    23    24   1
    29    24    25   1
    30    24    27   1
    31    26    27   1
    32    27    28   1
    33    28    29   1
    34    28    30   2
    35    30    31   1
    36    31    32   1
    37    32    33   1
    38    33    34   2
    39    34    35   1
    40    35    36   1
    41    36    37   1
    42     4    38   1
    43     5    39   1
    44     5    40   1
    45     6    41   1
    46     7    42   1
    47     7    43   1
    48     7    44   1
    49    10    45   1
    50    10    46   1
    51    10    47   1
    52    11    48   1
    53    13    49   1
    54    13    50   1
    55    14    51   1
    56    14    52   1
    57    15    53   1
    58    17    54   1
    59    17    55   1
    60    17    56   1
    61    18    57   1
    62    19    58   1
    63    20    59   1
    64    20    60   1
    65    21    61   1
    66    21    62   1
    67    22    63   1
    68    23    64   1
    69    23    65   1
    70    24    66   1
    71    25    67   1
    72    25    68   1
    73    25    69   1
    74    27    70   1
    75    29    71   1
    76    29    72   1
    77    29    73   1
    78    30    74   1
    79    31    75   1
    80    31    76   1
    81    32    77   1
    82    32    78   1
    83    35    79   1
    84    35    80   1
    85    36    81   1
    86    36    82   1
    87    37    83   1
    88    37    84   1
@<TRIPOS>SUBSTRUCTURE
     1  GYN      2

