@<TRIPOS>MOLECULE
2x00_ligand_075
    84    88
SMALL
GAST_HUCK
****
This file was generated by PARSER (from files_GN.cpp)

@<TRIPOS>ATOM
      1 O6          7.7714   24.4933  -12.0899 O.2         1 GYN      -0.3700
      2 C5          7.3607   24.6219  -10.8098 C.2         1 GYN       0.2385
      3 O1          6.0623   24.5468  -10.4597 O.3         1 GYN      -0.2655
      4 C2          5.8507   24.6559   -9.0522 C.3         1 GYN       0.1059
      5 C3          7.2821   24.8593   -8.4696 C.3         1 GYN       0.0041
      6 C4          8.2649   24.7701   -9.6689 C.3         1 GYN       0.0613
      7 C7          9.1975   25.9992   -9.8127 C.3         1 GYN      -0.0438
      8 C8          4.8847   25.7186   -8.6783 C.2         1 GYN      -0.0559
      9 C13         4.1143   25.6666   -7.5524 C.2         1 GYN      -0.0876
     10 C14         4.4710   24.7195   -6.4778 C.3         1 GYN      -0.0498
     11 C12         3.0076   26.6409   -7.2814 C.3         1 GYN      -0.0250
     12 C27         2.6654   27.6666   -8.4652 C.3         1 GYN       0.0148
     13 C10         4.0620   28.1045   -9.0283 C.3         1 GYN      -0.0494
     14 C9          4.8876   26.9054   -9.5438 C.3         1 GYN      -0.0395
     15 C15         1.8227   25.8928   -6.8091 C.2         1 GYN      -0.1023
     16 C16         1.2559   25.8716   -5.5765 C.2         1 GYN      -0.0548
     17 C19         1.6971   26.7638   -4.5030 C.3         1 GYN      -0.0377
     18 C17         0.2248   24.8640   -5.2637 C.3         1 GYN       0.0804
     19 O20         0.6231   24.1269   -4.1036 O.3         1 GYN      -0.3807
     20 C18        -1.2022   25.4467   -5.0374 C.3         1 GYN      -0.0158
     21 C21        -1.9811   25.8352   -6.3274 C.3         1 GYN      -0.0223
     22 C43        -1.7377   27.2802   -6.8383 C.3         1 GYN       0.0623
     23 C47        -2.5231   27.6240   -8.1218 C.3         1 GYN      -0.0197
     24 C48        -3.0898   29.0390   -7.8735 C.3         1 GYN      -0.0066
     25 C49        -4.6428   29.0513   -7.7876 C.3         1 GYN      -0.0582
     26 O43        -2.1585   28.2498   -5.8651 O.3         1 GYN      -0.3622
     27 C37        -2.4148   29.4955   -6.5410 C.3         1 GYN       0.0865
     28 C36        -1.2589   30.4036   -6.7087 C.2         1 GYN      -0.0553
     29 C38        -1.4811   31.6834   -7.3852 C.3         1 GYN      -0.0379
     30 C35        -0.0490   30.1011   -6.1815 C.2         1 GYN      -0.1039
     31 C34         1.2246   30.7716   -6.4187 C.3         1 GYN      -0.0315
     32 C33         2.3280   29.8225   -6.9863 C.3         1 GYN       0.0100
     33 C32         1.9550   28.9376   -8.0994 C.2         1 GYN       0.0383
     34 N31         1.2523   29.5581   -8.9902 N.2         1 GYN      -0.2722
     35 C30         0.8572   29.2029  -10.2754 C.3         1 GYN       0.0432
     36 C46         1.4544   27.8649  -10.7817 C.3         1 GYN      -0.0375
     37 C28         1.7867   26.9525   -9.5787 C.3         1 GYN      -0.0530
     38 H1          5.4699   23.6706   -8.7652 H           1 GYN       0.0753
     39 H2          7.5043   24.0721   -7.7449 H           1 GYN       0.0338
     40 H3          7.3723   25.8197   -7.9537 H           1 GYN       0.0338
     41 H4          8.8766   23.8643   -9.5922 H           1 GYN       0.0553
     42 H5          9.8403   25.8866  -10.6886 H           1 GYN       0.0258
     43 H6          9.8343   26.0870   -8.9299 H           1 GYN       0.0258
     44 H7          8.6194   26.9192   -9.9204 H           1 GYN       0.0258
     45 H8          3.9385   24.9015   -5.5441 H           1 GYN       0.0329
     46 H9          5.5329   24.7901   -6.2334 H           1 GYN       0.0329
     47 H10         4.2423   23.6961   -6.7806 H           1 GYN       0.0329
     48 H11         3.4115   27.2287   -6.4608 H           1 GYN       0.0417
     49 H12         4.6407   28.5746   -8.2281 H           1 GYN       0.0226
     50 H13         3.9725   28.8453   -9.8282 H           1 GYN       0.0226
     51 H14         4.5239   26.6310  -10.5380 H           1 GYN       0.0362
     52 H15         5.9173   27.2589   -9.6671 H           1 GYN       0.0362
     53 H16         1.4677   25.2356   -7.4655 H           1 GYN       0.0252
     54 H17         2.7492   26.5985   -4.2699 H           1 GYN       0.0377
     55 H18         1.1369   26.6194   -3.5782 H           1 GYN       0.0377
     56 H19         1.5604   27.7970   -4.7991 H           1 GYN       0.0377
     57 H20         0.1410   24.1058   -6.0495 H           1 GYN       0.0742
     58 H21         1.3684   23.5588   -4.3964 H           1 GYN       0.2129
     59 H22        -1.1613   26.2976   -4.3543 H           1 GYN       0.0312
     60 H23        -1.7945   24.6755   -4.5389 H           1 GYN       0.0312
     61 H24        -3.0517   25.7271   -6.1302 H           1 GYN       0.0293
     62 H25        -1.7359   25.1219   -7.1173 H           1 GYN       0.0293
     63 H26        -0.6693   27.4080   -7.0309 H           1 GYN       0.0598
     64 H27        -3.3203   26.9019   -8.3173 H           1 GYN       0.0295
     65 H28        -1.8481   27.6166   -8.9806 H           1 GYN       0.0295
     66 H29        -2.8107   29.6826   -8.7138 H           1 GYN       0.0345
     67 H30        -5.0021   30.0682   -7.6128 H           1 GYN       0.0235
     68 H31        -4.9914   28.4106   -6.9731 H           1 GYN       0.0235
     69 H32        -5.0748   28.6933   -8.7261 H           1 GYN       0.0235
     70 H33        -3.1326   30.0340   -5.9150 H           1 GYN       0.0747
     71 H34        -1.1567   32.5096   -6.7494 H           1 GYN       0.0376
     72 H35        -2.5338   31.8556   -7.6177 H           1 GYN       0.0376
     73 H36        -0.9252   31.7123   -8.3233 H           1 GYN       0.0376
     74 H37         0.0078   29.3196   -5.5792 H           1 GYN       0.0245
     75 H38         1.5744   31.1841   -5.4668 H           1 GYN       0.0369
     76 H39         1.1263   31.6162   -7.1035 H           1 GYN       0.0369
     77 H40         2.7325   29.2613   -6.1504 H           1 GYN       0.0520
     78 H41         3.1408   30.4578   -7.3448 H           1 GYN       0.0520
     79 H42         1.1450   30.0112  -10.9516 H           1 GYN       0.0507
     80 H43        -0.2332   29.1451  -10.2726 H           1 GYN       0.0507
     81 H44         2.3593   28.0563  -11.3626 H           1 GYN       0.0277
     82 H45         0.7408   27.3658  -11.4429 H           1 GYN       0.0277
     83 H46         0.8204   26.6601   -9.1550 H           1 GYN       0.0210
     84 H47         2.2596   26.0377   -9.9363 H           1 GYN       0.0210
@<TRIPOS>BOND
     1     1     2   2
     2     2     3   1
     3     2     6   1
     4     3     4   1
     5     4     5   1
     6     4     8   1
     7     5     6   1
     8     6     7   1
     9     8     9   2
    10     8    14   1
    11     9    10   1
    12     9    11   1
    13    11    12   1
    14    11    15   1
    15    12    13   1
    16    12    33   1
    17    12    37   1
    18    13    14   1
    19    15    16   2
    20    16    17   1
    21    16    18   1
    22    18    19   1
    23    18    20   1
    24    20    21   1
    25    21    22   1
    26    22    23   1
    27    22    26   1
    28    23    24   1
    29    24    25   1
    30    24    27   1
    31    26    27   1
    32    27    28   1
    33    28    29   1
    34    28    30   2
    35    30    31   1
    36    31    32   1
    37    32    33   1
    38    33    34   2
    39    34    35   1
    40    35    36   1
    41    36    37   1
    42     4    38   1
    43     5    39   1
    44     5    40   1
    45     6    41   1
    46     7    42   1
    47     7    43   1
    48     7    44   1
    49    10    45   1
    50    10    46   1
    51    10    47   1
    52    11    48   1
    53    13    49   1
    54    13    50   1
    55    14    51   1
    56    14    52   1
    57    15    53   1
    58    17    54   1
    59    17    55   1
    60    17    56   1
    61    18    57   1
    62    19    58   1
    63    20    59   1
    64    20    60   1
    65    21    61   1
    66    21    62   1
    67    22    63   1
    68    23    64   1
    69    23    65   1
    70    24    66   1
    71    25    67   1
    72    25    68   1
    73    25    69   1
    74    27    70   1
    75    29    71   1
    76    29    72   1
    77    29    73   1
    78    30    74   1
    79    31    75   1
    80    31    76   1
    81    32    77   1
    82    32    78   1
    83    35    79   1
    84    35    80   1
    85    36    81   1
    86    36    82   1
    87    37    83   1
    88    37    84   1
@<TRIPOS>SUBSTRUCTURE
     1  GYN      2

