@<TRIPOS>MOLECULE
2x00_ligand_055
    84    88
SMALL
GAST_HUCK
****
This file was generated by PARSER (from files_GN.cpp)

@<TRIPOS>ATOM
      1 O6         -1.4630   39.4920    6.7272 O.2         1 GYN      -0.3700
      2 C5         -2.2198   38.6283    6.0111 C.2         1 GYN       0.2385
      3 O1         -2.5677   37.4213    6.4852 O.3         1 GYN      -0.2655
      4 C2         -3.4125   36.6700    5.6149 C.3         1 GYN       0.1059
      5 C3         -3.5581   37.6147    4.3787 C.3         1 GYN       0.0041
      6 C4         -2.8169   38.9330    4.7213 C.3         1 GYN       0.0613
      7 C7         -1.7608   39.3523    3.6639 C.3         1 GYN      -0.0438
      8 C8         -3.0465   35.2733    5.2468 C.2         1 GYN      -0.0559
      9 C13        -1.8605   34.6491    5.5350 C.2         1 GYN      -0.0876
     10 C14        -1.0079   35.1649    6.6182 C.3         1 GYN      -0.0498
     11 C12        -1.4651   33.3420    4.9116 C.3         1 GYN      -0.0250
     12 C27        -2.3497   32.8997    3.6610 C.3         1 GYN       0.0148
     13 C10        -3.8332   33.0923    4.1375 C.3         1 GYN      -0.0494
     14 C9         -4.1214   34.5588    4.5306 C.3         1 GYN      -0.0395
     15 C15        -0.0169   33.3181    4.5930 C.2         1 GYN      -0.1023
     16 C16         0.9796   32.5996    5.1681 C.2         1 GYN      -0.0548
     17 C19         0.6968   31.6933    6.2864 C.3         1 GYN      -0.0377
     18 C17         2.3930   32.9446    4.8547 C.3         1 GYN       0.0804
     19 O20         2.8299   33.8078    5.9100 O.3         1 GYN      -0.3807
     20 C18         3.4618   31.8110    4.6679 C.3         1 GYN      -0.0158
     21 C21         3.5110   31.1037    3.2852 C.3         1 GYN      -0.0223
     22 C43         2.3001   30.1960    2.9576 C.3         1 GYN       0.0623
     23 C47         2.3496   29.5057    1.5729 C.3         1 GYN      -0.0197
     24 C48         2.2578   27.9943    1.8732 C.3         1 GYN      -0.0066
     25 C49         3.6125   27.2427    1.7646 C.3         1 GYN      -0.0582
     26 O43         2.2183   29.1416    3.9325 O.3         1 GYN      -0.3622
     27 C37         1.6720   27.9625    3.3143 C.3         1 GYN       0.0865
     28 C36         0.2013   27.8263    3.3471 C.2         1 GYN      -0.0553
     29 C38        -0.3843   26.6000    2.8163 C.3         1 GYN      -0.0379
     30 C35        -0.5821   28.8178    3.8322 C.2         1 GYN      -0.1039
     31 C34        -2.0350   28.9046    3.7896 C.3         1 GYN      -0.0315
     32 C33        -2.5888   30.3274    4.1247 C.3         1 GYN       0.0100
     33 C32        -2.1636   31.4570    3.2777 C.2         1 GYN       0.0383
     34 N31        -1.7635   31.1193    2.0943 N.2         1 GYN      -0.2722
     35 C30        -1.3526   31.8773    1.0078 C.3         1 GYN       0.0432
     36 C46        -1.0630   33.3438    1.3796 C.3         1 GYN      -0.0375
     37 C28        -2.1215   33.8403    2.3940 C.3         1 GYN      -0.0530
     38 H1         -4.3694   36.6295    6.1494 H           1 GYN       0.0753
     39 H2         -4.6155   37.8086    4.1783 H           1 GYN       0.0338
     40 H3         -3.1309   37.1625    3.4758 H           1 GYN       0.0338
     41 H4         -3.5354   39.7453    4.8579 H           1 GYN       0.0553
     42 H5         -1.2679   40.2805    3.9660 H           1 GYN       0.0258
     43 H6         -2.2460   39.5185    2.6986 H           1 GYN       0.0258
     44 H7         -0.9973   38.5761    3.5409 H           1 GYN       0.0258
     45 H8         -0.2251   34.4870    6.9356 H           1 GYN       0.0329
     46 H9         -1.6057   35.3620    7.5132 H           1 GYN       0.0329
     47 H10        -0.5118   36.0820    6.2911 H           1 GYN       0.0329
     48 H11        -1.6641   32.6269    5.7085 H           1 GYN       0.0417
     49 H12        -4.0368   32.4754    5.0198 H           1 GYN       0.0226
     50 H13        -4.5375   32.7818    3.3595 H           1 GYN       0.0226
     51 H14        -4.3750   35.0999    3.6156 H           1 GYN       0.0362
     52 H15        -5.0210   34.5564    5.1538 H           1 GYN       0.0362
     53 H16         0.2588   34.0250    3.9558 H           1 GYN       0.0252
     54 H17        -0.0424   30.9501    6.0084 H           1 GYN       0.0377
     55 H18         0.3112   32.2486    7.1390 H           1 GYN       0.0377
     56 H19         1.5681   31.1525    6.6336 H           1 GYN       0.0377
     57 H20         2.4490   33.5512    3.9438 H           1 GYN       0.0742
     58 H21         3.7100   34.1503    5.6292 H           1 GYN       0.2129
     59 H22         3.3932   31.0569    5.4504 H           1 GYN       0.0312
     60 H23         4.4460   32.2727    4.7950 H           1 GYN       0.0312
     61 H24         4.4115   30.4846    3.2689 H           1 GYN       0.0293
     62 H25         3.6211   31.8623    2.5090 H           1 GYN       0.0293
     63 H26         1.3996   30.8120    3.0033 H           1 GYN       0.0598
     64 H27         3.2413   29.7615    0.9992 H           1 GYN       0.0295
     65 H28         1.4818   29.8103    0.9804 H           1 GYN       0.0295
     66 H29         1.5873   27.5280    1.1448 H           1 GYN       0.0345
     67 H30         3.4692   26.1790    1.9726 H           1 GYN       0.0235
     68 H31         4.3392   27.6380    2.4768 H           1 GYN       0.0235
     69 H32         4.0195   27.3407    0.7550 H           1 GYN       0.0235
     70 H33         2.0786   27.1194    3.8790 H           1 GYN       0.0747
     71 H34        -1.0443   26.1398    3.5535 H           1 GYN       0.0376
     72 H35         0.3705   25.8572    2.5489 H           1 GYN       0.0376
     73 H36        -0.9493   26.8293    1.9138 H           1 GYN       0.0376
     74 H37        -0.1313   29.5970    4.2277 H           1 GYN       0.0245
     75 H38        -2.4457   28.1838    4.5005 H           1 GYN       0.0369
     76 H39        -2.3875   28.6361    2.7914 H           1 GYN       0.0369
     77 H40        -2.3370   30.5311    5.1656 H           1 GYN       0.0520
     78 H41        -3.6799   30.2612    4.0702 H           1 GYN       0.0520
     79 H42        -2.1394   31.8324    0.2499 H           1 GYN       0.0507
     80 H43        -0.4515   31.4268    0.5841 H           1 GYN       0.0507
     81 H44        -1.0927   33.9597    0.4772 H           1 GYN       0.0277
     82 H45        -0.0608   33.4165    1.7979 H           1 GYN       0.0277
     83 H46        -1.8421   34.8514    2.6995 H           1 GYN       0.0210
     84 H47        -3.0523   33.9331    1.8252 H           1 GYN       0.0210
@<TRIPOS>BOND
     1     1     2   2
     2     2     3   1
     3     2     6   1
     4     3     4   1
     5     4     5   1
     6     4     8   1
     7     5     6   1
     8     6     7   1
     9     8     9   2
    10     8    14   1
    11     9    10   1
    12     9    11   1
    13    11    12   1
    14    11    15   1
    15    12    13   1
    16    12    33   1
    17    12    37   1
    18    13    14   1
    19    15    16   2
    20    16    17   1
    21    16    18   1
    22    18    19   1
    23    18    20   1
    24    20    21   1
    25    21    22   1
    26    22    23   1
    27    22    26   1
    28    23    24   1
    29    24    25   1
    30    24    27   1
    31    26    27   1
    32    27    28   1
    33    28    29   1
    34    28    30   2
    35    30    31   1
    36    31    32   1
    37    32    33   1
    38    33    34   2
    39    34    35   1
    40    35    36   1
    41    36    37   1
    42     4    38   1
    43     5    39   1
    44     5    40   1
    45     6    41   1
    46     7    42   1
    47     7    43   1
    48     7    44   1
    49    10    45   1
    50    10    46   1
    51    10    47   1
    52    11    48   1
    53    13    49   1
    54    13    50   1
    55    14    51   1
    56    14    52   1
    57    15    53   1
    58    17    54   1
    59    17    55   1
    60    17    56   1
    61    18    57   1
    62    19    58   1
    63    20    59   1
    64    20    60   1
    65    21    61   1
    66    21    62   1
    67    22    63   1
    68    23    64   1
    69    23    65   1
    70    24    66   1
    71    25    67   1
    72    25    68   1
    73    25    69   1
    74    27    70   1
    75    29    71   1
    76    29    72   1
    77    29    73   1
    78    30    74   1
    79    31    75   1
    80    31    76   1
    81    32    77   1
    82    32    78   1
    83    35    79   1
    84    35    80   1
    85    36    81   1
    86    36    82   1
    87    37    83   1
    88    37    84   1
@<TRIPOS>SUBSTRUCTURE
     1  GYN      2

