@<TRIPOS>MOLECULE
2x00_ligand_066
    84    88
SMALL
GAST_HUCK
****
This file was generated by PARSER (from files_GN.cpp)

@<TRIPOS>ATOM
      1 O6         14.5218   22.6638  -22.3956 O.2         1 GYN      -0.3700
      2 C5         14.4740   23.4450  -21.2942 C.2         1 GYN       0.2385
      3 O1         14.5472   22.9386  -20.0471 O.3         1 GYN      -0.2655
      4 C2         14.5749   23.9512  -19.0446 C.3         1 GYN       0.1059
      5 C3         14.3313   25.2759  -19.8245 C.3         1 GYN       0.0041
      6 C4         14.4739   24.9123  -21.3268 C.3         1 GYN       0.0613
      7 C7         13.3596   25.5068  -22.2297 C.3         1 GYN      -0.0438
      8 C8         13.6711   23.7643  -17.8798 C.2         1 GYN      -0.0559
      9 C13        12.3234   23.5552  -17.9763 C.2         1 GYN      -0.0876
     10 C14        11.7721   22.9468  -19.2018 C.3         1 GYN      -0.0498
     11 C12        11.3993   23.7457  -16.8096 C.3         1 GYN      -0.0250
     12 C27        12.0309   24.4702  -15.5378 C.3         1 GYN       0.0148
     13 C10        13.4188   23.7619  -15.3282 C.3         1 GYN      -0.0494
     14 C9         14.3286   23.9108  -16.5717 C.3         1 GYN      -0.0395
     15 C15        10.1466   24.4022  -17.2289 C.2         1 GYN      -0.1023
     16 C16         8.8863   23.8928  -17.2995 C.2         1 GYN      -0.0548
     17 C19         8.6156   22.4877  -16.9698 C.3         1 GYN      -0.0377
     18 C17         7.8415   24.6752  -17.9953 C.3         1 GYN       0.0804
     19 O20         7.7361   24.0787  -19.2854 O.3         1 GYN      -0.3807
     20 C18         6.4056   24.7742  -17.3801 C.3         1 GYN      -0.0158
     21 C21         6.1617   25.8847  -16.3167 C.3         1 GYN      -0.0223
     22 C43         6.7849   25.6194  -14.9247 C.3         1 GYN       0.0623
     23 C47         6.4606   26.7060  -13.8835 C.3         1 GYN      -0.0197
     24 C48         6.7620   25.9811  -12.5573 C.3         1 GYN      -0.0066
     25 C49         6.0024   26.5668  -11.3391 C.3         1 GYN      -0.0582
     26 O43         6.2927   24.4077  -14.3311 O.3         1 GYN      -0.3622
     27 C37         6.4504   24.4894  -12.8945 C.3         1 GYN       0.0865
     28 C36         7.4656   23.5664  -12.3480 C.2         1 GYN      -0.0553
     29 C38         7.3414   23.0958  -10.9696 C.3         1 GYN      -0.0379
     30 C35         8.5718   23.3033  -13.0774 C.2         1 GYN      -0.1039
     31 C34         9.8605   22.8427  -12.5832 C.3         1 GYN      -0.0315
     32 C33        11.0139   22.9843  -13.6293 C.3         1 GYN       0.0100
     33 C32        11.1965   24.2884  -14.3065 C.2         1 GYN       0.0383
     34 N31        10.6724   25.3015  -13.6984 N.2         1 GYN      -0.2722
     35 C30        10.6527   26.6618  -13.9835 C.3         1 GYN       0.0432
     36 C46        11.1730   26.9894  -15.3964 C.3         1 GYN      -0.0375
     37 C28        12.3182   26.0206  -15.7808 C.3         1 GYN      -0.0530
     38 H1         15.6229   23.9595  -18.7169 H           1 GYN       0.0753
     39 H2         15.0639   26.0376  -19.5366 H           1 GYN       0.0338
     40 H3         13.3329   25.6817  -19.6159 H           1 GYN       0.0338
     41 H4         15.4510   25.2427  -21.6977 H           1 GYN       0.0553
     42 H5         13.5089   25.1862  -23.2679 H           1 GYN       0.0258
     43 H6         13.4045   26.6035  -22.1924 H           1 GYN       0.0258
     44 H7         12.3688   25.1806  -21.9016 H           1 GYN       0.0258
     45 H8         12.2645   21.9873  -19.3892 H           1 GYN       0.0329
     46 H9         11.9189   23.6056  -20.0525 H           1 GYN       0.0329
     47 H10        10.7042   22.7329  -19.1516 H           1 GYN       0.0329
     48 H11        11.1804   22.7208  -16.5170 H           1 GYN       0.0417
     49 H12        13.2801   22.6893  -15.1567 H           1 GYN       0.0226
     50 H13        13.9369   24.1616  -14.4529 H           1 GYN       0.0226
     51 H14        14.8046   24.8961  -16.5323 H           1 GYN       0.0362
     52 H15        15.1270   23.1626  -16.4888 H           1 GYN       0.0362
     53 H16        10.2829   25.2967  -17.6341 H           1 GYN       0.0252
     54 H17         9.2521   21.8255  -17.5573 H           1 GYN       0.0377
     55 H18         7.5907   22.1873  -17.1837 H           1 GYN       0.0377
     56 H19         8.8019   22.2966  -15.9156 H           1 GYN       0.0377
     57 H20         8.1599   25.7072  -18.1777 H           1 GYN       0.0742
     58 H21         8.5360   24.3669  -19.7767 H           1 GYN       0.2129
     59 H22         6.0691   23.8173  -16.9785 H           1 GYN       0.0312
     60 H23         5.7266   25.0077  -18.2074 H           1 GYN       0.0312
     61 H24         5.0819   25.9905  -16.1902 H           1 GYN       0.0293
     62 H25         6.5378   26.8359  -16.7002 H           1 GYN       0.0293
     63 H26         7.8689   25.5581  -15.0484 H           1 GYN       0.0598
     64 H27         5.4069   26.9960  -13.9403 H           1 GYN       0.0295
     65 H28         7.0829   27.5960  -14.0156 H           1 GYN       0.0295
     66 H29         7.8330   26.1035  -12.3557 H           1 GYN       0.0345
     67 H30         6.2635   26.0119  -10.4366 H           1 GYN       0.0235
     68 H31         4.9239   26.5117  -11.4852 H           1 GYN       0.0235
     69 H32         6.2807   27.6122  -11.1954 H           1 GYN       0.0235
     70 H33         5.4714   24.2113  -12.4955 H           1 GYN       0.0747
     71 H34         7.4118   22.0057  -10.9431 H           1 GYN       0.0376
     72 H35         6.3853   23.3720  -10.5205 H           1 GYN       0.0376
     73 H36         8.1307   23.5187  -10.3450 H           1 GYN       0.0376
     74 H37         8.5559   23.5728  -14.0250 H           1 GYN       0.0245
     75 H38         9.7761   21.7963  -12.2794 H           1 GYN       0.0369
     76 H39        10.1358   23.4297  -11.7058 H           1 GYN       0.0369
     77 H40        10.8542   22.2050  -14.3727 H           1 GYN       0.0520
     78 H41        11.9466   22.7476  -13.1115 H           1 GYN       0.0520
     79 H42        11.2588   27.1767  -13.2358 H           1 GYN       0.0507
     80 H43         9.6316   27.0293  -13.8840 H           1 GYN       0.0507
     81 H44        11.5359   28.0209  -15.4234 H           1 GYN       0.0277
     82 H45        10.3466   26.9236  -16.1012 H           1 GYN       0.0277
     83 H46        12.5826   26.2081  -16.8244 H           1 GYN       0.0210
     84 H47        13.1775   26.3311  -15.1792 H           1 GYN       0.0210
@<TRIPOS>BOND
     1     1     2   2
     2     2     3   1
     3     2     6   1
     4     3     4   1
     5     4     5   1
     6     4     8   1
     7     5     6   1
     8     6     7   1
     9     8     9   2
    10     8    14   1
    11     9    10   1
    12     9    11   1
    13    11    12   1
    14    11    15   1
    15    12    13   1
    16    12    33   1
    17    12    37   1
    18    13    14   1
    19    15    16   2
    20    16    17   1
    21    16    18   1
    22    18    19   1
    23    18    20   1
    24    20    21   1
    25    21    22   1
    26    22    23   1
    27    22    26   1
    28    23    24   1
    29    24    25   1
    30    24    27   1
    31    26    27   1
    32    27    28   1
    33    28    29   1
    34    28    30   2
    35    30    31   1
    36    31    32   1
    37    32    33   1
    38    33    34   2
    39    34    35   1
    40    35    36   1
    41    36    37   1
    42     4    38   1
    43     5    39   1
    44     5    40   1
    45     6    41   1
    46     7    42   1
    47     7    43   1
    48     7    44   1
    49    10    45   1
    50    10    46   1
    51    10    47   1
    52    11    48   1
    53    13    49   1
    54    13    50   1
    55    14    51   1
    56    14    52   1
    57    15    53   1
    58    17    54   1
    59    17    55   1
    60    17    56   1
    61    18    57   1
    62    19    58   1
    63    20    59   1
    64    20    60   1
    65    21    61   1
    66    21    62   1
    67    22    63   1
    68    23    64   1
    69    23    65   1
    70    24    66   1
    71    25    67   1
    72    25    68   1
    73    25    69   1
    74    27    70   1
    75    29    71   1
    76    29    72   1
    77    29    73   1
    78    30    74   1
    79    31    75   1
    80    31    76   1
    81    32    77   1
    82    32    78   1
    83    35    79   1
    84    35    80   1
    85    36    81   1
    86    36    82   1
    87    37    83   1
    88    37    84   1
@<TRIPOS>SUBSTRUCTURE
     1  GYN      2

