@<TRIPOS>MOLECULE
2x00_ligand_077
    84    88
SMALL
GAST_HUCK
****
This file was generated by PARSER (from files_GN.cpp)

@<TRIPOS>ATOM
      1 O6          7.1692   21.8867  -12.3424 O.2         1 GYN      -0.3700
      2 C5          7.3750   22.6850  -11.2708 C.2         1 GYN       0.2385
      3 O1          6.4450   22.8735  -10.3130 O.3         1 GYN      -0.2655
      4 C2          6.8801   23.7430   -9.2676 C.3         1 GYN       0.1059
      5 C3          8.3129   24.1725   -9.7061 C.3         1 GYN       0.0041
      6 C4          8.6203   23.4137  -11.0254 C.3         1 GYN       0.0613
      7 C7          9.0088   24.3264  -12.2169 C.3         1 GYN      -0.0438
      8 C8          5.9387   24.8675   -9.0138 C.2         1 GYN      -0.0559
      9 C13         5.5879   25.3026   -7.7662 C.2         1 GYN      -0.0876
     10 C14         6.4168   24.8939   -6.6149 C.3         1 GYN      -0.0498
     11 C12         4.5013   26.3178   -7.5283 C.3         1 GYN      -0.0250
     12 C27         3.5669   26.6123   -8.7925 C.3         1 GYN       0.0148
     13 C10         4.5685   26.7949   -9.9896 C.3         1 GYN      -0.0494
     14 C9          5.4251   25.5265  -10.2231 C.3         1 GYN      -0.0395
     15 C15         3.7182   25.9894   -6.3127 C.2         1 GYN      -0.1023
     16 C16         3.7369   26.5913   -5.0940 C.2         1 GYN      -0.0548
     17 C19         4.5094   27.8141   -4.8596 C.3         1 GYN      -0.0377
     18 C17         3.1978   25.8729   -3.9147 C.3         1 GYN       0.0804
     19 O20         4.3324   25.4881   -3.1309 O.3         1 GYN      -0.3807
     20 C18         2.2014   26.6143   -2.9647 C.3         1 GYN      -0.0158
     21 C21         0.7156   26.7128   -3.4103 C.3         1 GYN      -0.0223
     22 C43         0.4195   27.7201   -4.5485 C.3         1 GYN       0.0623
     23 C47        -1.0824   27.9191   -4.8177 C.3         1 GYN      -0.0197
     24 C48        -1.1025   29.2544   -5.5808 C.3         1 GYN      -0.0066
     25 C49        -2.4416   30.0273   -5.4699 C.3         1 GYN      -0.0582
     26 O43         0.8982   29.0398   -4.2411 O.3         1 GYN      -0.3622
     27 C37         0.1335   30.0054   -4.9978 C.3         1 GYN       0.0865
     28 C36         0.9083   30.6984   -6.0470 C.2         1 GYN      -0.0553
     29 C38         0.5331   32.0555   -6.4394 C.3         1 GYN      -0.0379
     30 C35         1.8431   30.0093   -6.7329 C.2         1 GYN      -0.1039
     31 C34         2.4508   30.3647   -8.0088 C.3         1 GYN      -0.0315
     32 C33         3.3419   29.2264   -8.6114 C.3         1 GYN       0.0100
     33 C32         2.7571   27.8746   -8.7003 C.2         1 GYN       0.0383
     34 N31         1.4717   27.8654   -8.8283 N.2         1 GYN      -0.2722
     35 C30         0.5634   26.8219   -8.9359 C.3         1 GYN       0.0432
     36 C46         1.1854   25.4725   -8.5254 C.3         1 GYN      -0.0375
     37 C28         2.6121   25.3789   -9.1170 C.3         1 GYN      -0.0530
     38 H1          6.9618   23.0808   -8.4016 H           1 GYN       0.0753
     39 H2          9.0383   23.8922   -8.9395 H           1 GYN       0.0338
     40 H3          8.3891   25.2536   -9.8433 H           1 GYN       0.0338
     41 H4          9.4214   22.6854  -10.8626 H           1 GYN       0.0553
     42 H5          9.2152   23.7245  -13.1046 H           1 GYN       0.0258
     43 H6          9.9093   24.8934  -11.9748 H           1 GYN       0.0258
     44 H7          8.2054   25.0277  -12.4505 H           1 GYN       0.0258
     45 H8          7.4798   25.0044   -6.8451 H           1 GYN       0.0329
     46 H9          6.2107   23.8516   -6.3620 H           1 GYN       0.0329
     47 H10         6.2440   25.4800   -5.7168 H           1 GYN       0.0329
     48 H11         5.0666   27.2283   -7.3407 H           1 GYN       0.0417
     49 H12         5.2609   27.6208   -9.7875 H           1 GYN       0.0226
     50 H13         4.0381   27.0497  -10.9143 H           1 GYN       0.0226
     51 H14         4.8317   24.8021  -10.7839 H           1 GYN       0.0362
     52 H15         6.2556   25.8192  -10.8717 H           1 GYN       0.0362
     53 H16         3.2381   25.1220   -6.3704 H           1 GYN       0.0252
     54 H17         5.5646   27.6399   -5.0641 H           1 GYN       0.0377
     55 H18         4.4527   28.1733   -3.8339 H           1 GYN       0.0377
     56 H19         4.1554   28.6149   -5.5026 H           1 GYN       0.0377
     57 H20         2.7105   24.9346   -4.2008 H           1 GYN       0.0742
     58 H21         4.9250   24.9984   -3.7380 H           1 GYN       0.2129
     59 H22         2.5657   27.6103   -2.7168 H           1 GYN       0.0312
     60 H23         2.1903   26.0562   -2.0222 H           1 GYN       0.0312
     61 H24         0.1345   27.0146   -2.5345 H           1 GYN       0.0293
     62 H25         0.3645   25.7224   -3.7101 H           1 GYN       0.0293
     63 H26         0.8979   27.3529   -5.4603 H           1 GYN       0.0598
     64 H27        -1.6323   28.0044   -3.8761 H           1 GYN       0.0295
     65 H28        -1.4998   27.1018   -5.4115 H           1 GYN       0.0295
     66 H29        -0.9441   29.0263   -6.6420 H           1 GYN       0.0345
     67 H30        -2.3836   30.9624   -6.0291 H           1 GYN       0.0235
     68 H31        -2.6745   30.2554   -4.4274 H           1 GYN       0.0235
     69 H32        -3.2527   29.4306   -5.8908 H           1 GYN       0.0235
     70 H33        -0.1909   30.7335   -4.2478 H           1 GYN       0.0747
     71 H34         1.4062   32.7080   -6.3867 H           1 GYN       0.0376
     72 H35        -0.2351   32.4806   -5.7911 H           1 GYN       0.0376
     73 H36         0.1437   32.0624   -7.4590 H           1 GYN       0.0376
     74 H37         2.0784   29.1138   -6.3911 H           1 GYN       0.0245
     75 H38         3.0499   31.2691   -7.8842 H           1 GYN       0.0369
     76 H39         1.6609   30.5890   -8.7292 H           1 GYN       0.0369
     77 H40         4.2515   29.1885   -8.0189 H           1 GYN       0.0520
     78 H41         3.6364   29.5348   -9.6176 H           1 GYN       0.0520
     79 H42         0.2064   26.7817   -9.9691 H           1 GYN       0.0507
     80 H43        -0.2909   27.0361   -8.2903 H           1 GYN       0.0507
     81 H44         0.5642   24.6540   -8.8979 H           1 GYN       0.0277
     82 H45         1.2110   25.4054   -7.4392 H           1 GYN       0.0277
     83 H46         3.0613   24.4393   -8.7942 H           1 GYN       0.0210
     84 H47         2.4618   25.2959  -10.1946 H           1 GYN       0.0210
@<TRIPOS>BOND
     1     1     2   2
     2     2     3   1
     3     2     6   1
     4     3     4   1
     5     4     5   1
     6     4     8   1
     7     5     6   1
     8     6     7   1
     9     8     9   2
    10     8    14   1
    11     9    10   1
    12     9    11   1
    13    11    12   1
    14    11    15   1
    15    12    13   1
    16    12    33   1
    17    12    37   1
    18    13    14   1
    19    15    16   2
    20    16    17   1
    21    16    18   1
    22    18    19   1
    23    18    20   1
    24    20    21   1
    25    21    22   1
    26    22    23   1
    27    22    26   1
    28    23    24   1
    29    24    25   1
    30    24    27   1
    31    26    27   1
    32    27    28   1
    33    28    29   1
    34    28    30   2
    35    30    31   1
    36    31    32   1
    37    32    33   1
    38    33    34   2
    39    34    35   1
    40    35    36   1
    41    36    37   1
    42     4    38   1
    43     5    39   1
    44     5    40   1
    45     6    41   1
    46     7    42   1
    47     7    43   1
    48     7    44   1
    49    10    45   1
    50    10    46   1
    51    10    47   1
    52    11    48   1
    53    13    49   1
    54    13    50   1
    55    14    51   1
    56    14    52   1
    57    15    53   1
    58    17    54   1
    59    17    55   1
    60    17    56   1
    61    18    57   1
    62    19    58   1
    63    20    59   1
    64    20    60   1
    65    21    61   1
    66    21    62   1
    67    22    63   1
    68    23    64   1
    69    23    65   1
    70    24    66   1
    71    25    67   1
    72    25    68   1
    73    25    69   1
    74    27    70   1
    75    29    71   1
    76    29    72   1
    77    29    73   1
    78    30    74   1
    79    31    75   1
    80    31    76   1
    81    32    77   1
    82    32    78   1
    83    35    79   1
    84    35    80   1
    85    36    81   1
    86    36    82   1
    87    37    83   1
    88    37    84   1
@<TRIPOS>SUBSTRUCTURE
     1  GYN      2

