@<TRIPOS>MOLECULE
2x00_ligand_044
    84    88
SMALL
GAST_HUCK
****
This file was generated by PARSER (from files_GN.cpp)

@<TRIPOS>ATOM
      1 O6         -0.8268   23.4866    2.2518 O.2         1 GYN      -0.3700
      2 C5         -0.2609   24.5737    1.6795 C.2         1 GYN       0.2385
      3 O1         -0.7966   25.1778    0.5996 O.3         1 GYN      -0.2655
      4 C2         -0.0899   26.3588    0.2288 C.3         1 GYN       0.1059
      5 C3          1.1369   26.4090    1.1835 C.3         1 GYN       0.0041
      6 C4          0.8580   25.3225    2.2548 C.3         1 GYN       0.0613
      7 C7          2.0863   24.4505    2.6186 C.3         1 GYN      -0.0438
      8 C8          0.2261   26.4401   -1.2228 C.2         1 GYN      -0.0559
      9 C13         0.9630   25.5134   -1.9082 C.2         1 GYN      -0.0876
     10 C14         1.1598   24.1656   -1.3398 C.3         1 GYN      -0.0498
     11 C12         1.4695   25.7626   -3.2969 C.3         1 GYN      -0.0250
     12 C27         1.3750   27.2783   -3.7837 C.3         1 GYN       0.0148
     13 C10        -0.0764   27.7368   -3.4100 C.3         1 GYN      -0.0494
     14 C9         -0.3288   27.6291   -1.8867 C.3         1 GYN      -0.0395
     15 C15         2.8336   25.2196   -3.4648 C.2         1 GYN      -0.1023
     16 C16         3.2471   24.1150   -4.1368 C.2         1 GYN      -0.0548
     17 C19         2.2915   23.2751   -4.8746 C.3         1 GYN      -0.0377
     18 C17         4.6094   23.5857   -3.8816 C.3         1 GYN       0.0804
     19 O20         4.4483   22.4952   -2.9701 O.3         1 GYN      -0.3807
     20 C18         5.4899   23.1057   -5.0839 C.3         1 GYN      -0.0158
     21 C21         6.2106   24.2155   -5.8929 C.3         1 GYN      -0.0223
     22 C43         5.2874   25.1328   -6.7363 C.3         1 GYN       0.0623
     23 C47         6.0669   26.1886   -7.5513 C.3         1 GYN      -0.0197
     24 C48         5.7489   25.8435   -9.0170 C.3         1 GYN      -0.0066
     25 C49         6.8057   24.9052   -9.6660 C.3         1 GYN      -0.0582
     26 O43         4.5301   24.3720   -7.6971 O.3         1 GYN      -0.3622
     27 C37         4.3527   25.1703   -8.8890 C.3         1 GYN       0.0865
     28 C36         3.1872   26.0881   -8.8804 C.2         1 GYN      -0.0553
     29 C38         3.0067   27.0368   -9.9829 C.3         1 GYN      -0.0379
     30 C35         2.2461   25.9985   -7.9132 C.2         1 GYN      -0.1039
     31 C34         1.0576   26.8267   -7.7411 C.3         1 GYN      -0.0315
     32 C33         0.5816   26.9205   -6.2579 C.3         1 GYN       0.0100
     33 C32         1.5387   27.4414   -5.2641 C.2         1 GYN       0.0383
     34 N31         2.4538   28.2052   -5.7546 N.2         1 GYN      -0.2722
     35 C30         3.4719   28.9217   -5.1517 C.3         1 GYN       0.0432
     36 C46         3.7460   28.4669   -3.7095 C.3         1 GYN      -0.0375
     37 C28         2.3943   28.2238   -2.9977 C.3         1 GYN      -0.0530
     38 H1         -0.7545   27.1801    0.5286 H           1 GYN       0.0753
     39 H2          1.2263   27.3960    1.6520 H           1 GYN       0.0338
     40 H3          2.0729   26.2105    0.6529 H           1 GYN       0.0338
     41 H4          0.4875   25.8060    3.1640 H           1 GYN       0.0553
     42 H5          1.8104   23.7229    3.3872 H           1 GYN       0.0258
     43 H6          2.8839   25.0867    3.0110 H           1 GYN       0.0258
     44 H7          2.4714   23.9046    1.7510 H           1 GYN       0.0258
     45 H8          1.6193   23.4575   -2.0180 H           1 GYN       0.0329
     46 H9          0.2113   23.7094   -1.0564 H           1 GYN       0.0329
     47 H10         1.8193   24.2150   -0.4728 H           1 GYN       0.0329
     48 H11         0.7800   25.1855   -3.9069 H           1 GYN       0.0417
     49 H12        -0.8212   27.1076   -3.9065 H           1 GYN       0.0226
     50 H13        -0.2619   28.7690   -3.7324 H           1 GYN       0.0226
     51 H14         0.0786   28.5249   -1.4035 H           1 GYN       0.0362
     52 H15        -1.4151   27.6546   -1.7376 H           1 GYN       0.0362
     53 H16         3.5044   25.6443   -2.8756 H           1 GYN       0.0252
     54 H17         1.7412   23.8648   -5.6034 H           1 GYN       0.0377
     55 H18         1.5695   22.8187   -4.1952 H           1 GYN       0.0377
     56 H19         2.7598   22.4574   -5.4203 H           1 GYN       0.0377
     57 H20         5.2254   24.3159   -3.3466 H           1 GYN       0.0742
     58 H21         4.1634   22.8920   -2.1141 H           1 GYN       0.2129
     59 H22         4.9305   22.4674   -5.7683 H           1 GYN       0.0312
     60 H23         6.2801   22.4727   -4.6662 H           1 GYN       0.0312
     61 H24         6.9214   23.7268   -6.5633 H           1 GYN       0.0293
     62 H25         6.7910   24.8307   -5.2021 H           1 GYN       0.0293
     63 H26         4.5950   25.6450   -6.0644 H           1 GYN       0.0598
     64 H27         7.1427   26.1884   -7.3530 H           1 GYN       0.0295
     65 H28         5.6763   27.1849   -7.3262 H           1 GYN       0.0295
     66 H29         5.7260   26.7622   -9.6098 H           1 GYN       0.0345
     67 H30         6.5249   24.6871  -10.6983 H           1 GYN       0.0235
     68 H31         6.8870   23.9618   -9.1224 H           1 GYN       0.0235
     69 H32         7.7846   25.3887   -9.6736 H           1 GYN       0.0235
     70 H33         4.1933   24.4755   -9.7171 H           1 GYN       0.0747
     71 H34         2.0320   26.8886  -10.4537 H           1 GYN       0.0376
     72 H35         3.7588   26.9268  -10.7642 H           1 GYN       0.0376
     73 H36         3.0693   28.0600   -9.6081 H           1 GYN       0.0376
     74 H37         2.3448   25.2736   -7.2514 H           1 GYN       0.0245
     75 H38         0.2543   26.3979   -8.3458 H           1 GYN       0.0369
     76 H39         1.2310   27.8439   -8.1021 H           1 GYN       0.0369
     77 H40         0.2419   25.9281   -5.9662 H           1 GYN       0.0520
     78 H41        -0.2945   27.5727   -6.2454 H           1 GYN       0.0520
     79 H42         3.1906   29.9744   -5.1633 H           1 GYN       0.0507
     80 H43         4.3723   28.7904   -5.7427 H           1 GYN       0.0507
     81 H44         4.3156   29.2320   -3.1748 H           1 GYN       0.0277
     82 H45         4.3506   27.5605   -3.7277 H           1 GYN       0.0277
     83 H46         2.6015   27.8369   -1.9962 H           1 GYN       0.0210
     84 H47         1.9556   29.2188   -2.8580 H           1 GYN       0.0210
@<TRIPOS>BOND
     1     1     2   2
     2     2     3   1
     3     2     6   1
     4     3     4   1
     5     4     5   1
     6     4     8   1
     7     5     6   1
     8     6     7   1
     9     8     9   2
    10     8    14   1
    11     9    10   1
    12     9    11   1
    13    11    12   1
    14    11    15   1
    15    12    13   1
    16    12    33   1
    17    12    37   1
    18    13    14   1
    19    15    16   2
    20    16    17   1
    21    16    18   1
    22    18    19   1
    23    18    20   1
    24    20    21   1
    25    21    22   1
    26    22    23   1
    27    22    26   1
    28    23    24   1
    29    24    25   1
    30    24    27   1
    31    26    27   1
    32    27    28   1
    33    28    29   1
    34    28    30   2
    35    30    31   1
    36    31    32   1
    37    32    33   1
    38    33    34   2
    39    34    35   1
    40    35    36   1
    41    36    37   1
    42     4    38   1
    43     5    39   1
    44     5    40   1
    45     6    41   1
    46     7    42   1
    47     7    43   1
    48     7    44   1
    49    10    45   1
    50    10    46   1
    51    10    47   1
    52    11    48   1
    53    13    49   1
    54    13    50   1
    55    14    51   1
    56    14    52   1
    57    15    53   1
    58    17    54   1
    59    17    55   1
    60    17    56   1
    61    18    57   1
    62    19    58   1
    63    20    59   1
    64    20    60   1
    65    21    61   1
    66    21    62   1
    67    22    63   1
    68    23    64   1
    69    23    65   1
    70    24    66   1
    71    25    67   1
    72    25    68   1
    73    25    69   1
    74    27    70   1
    75    29    71   1
    76    29    72   1
    77    29    73   1
    78    30    74   1
    79    31    75   1
    80    31    76   1
    81    32    77   1
    82    32    78   1
    83    35    79   1
    84    35    80   1
    85    36    81   1
    86    36    82   1
    87    37    83   1
    88    37    84   1
@<TRIPOS>SUBSTRUCTURE
     1  GYN      2

