@<TRIPOS>MOLECULE
2x00_ligand_048
    84    88
SMALL
GAST_HUCK
****
This file was generated by PARSER (from files_GN.cpp)

@<TRIPOS>ATOM
      1 O6          7.3629   24.9367   -4.3859 O.2         1 GYN      -0.3700
      2 C5          6.7295   24.5465   -5.5151 C.2         1 GYN       0.2385
      3 O1          7.3619   24.4179   -6.6973 O.3         1 GYN      -0.2655
      4 C2          6.5125   23.9859   -7.7583 C.3         1 GYN       0.1059
      5 C3          5.1223   23.8160   -7.0709 C.3         1 GYN       0.0041
      6 C4          5.3121   24.1954   -5.5771 C.3         1 GYN       0.0613
      7 C7          4.3976   25.3411   -5.0802 C.3         1 GYN      -0.0438
      8 C8          6.5584   24.9020   -8.9281 C.2         1 GYN      -0.0559
      9 C13         6.7166   24.4832  -10.2260 C.2         1 GYN      -0.0876
     10 C14         6.4937   23.0592  -10.5469 C.3         1 GYN      -0.0498
     11 C12         6.9508   25.4362  -11.3675 C.3         1 GYN      -0.0250
     12 C27         7.3039   26.9394  -10.9462 C.3         1 GYN       0.0148
     13 C10         6.2916   27.2888   -9.7985 C.3         1 GYN      -0.0494
     14 C9          6.4332   26.3276   -8.5978 C.3         1 GYN      -0.0395
     15 C15         7.9461   24.8881  -12.3229 C.2         1 GYN      -0.1023
     16 C16         7.7737   24.3927  -13.5762 C.2         1 GYN      -0.0548
     17 C19         6.4448   24.3319  -14.1956 C.3         1 GYN      -0.0377
     18 C17         8.9013   23.7005  -14.2499 C.3         1 GYN       0.0804
     19 O20         8.6309   22.2965  -14.2072 O.3         1 GYN      -0.3807
     20 C18         9.2377   24.0597  -15.7334 C.3         1 GYN      -0.0158
     21 C21        10.0400   25.3680  -15.9867 C.3         1 GYN      -0.0223
     22 C43         9.2371   26.6850  -15.8376 C.3         1 GYN       0.0623
     23 C47        10.0213   27.9578  -16.2424 C.3         1 GYN      -0.0197
     24 C48         9.1827   28.5861  -17.3761 C.3         1 GYN      -0.0066
     25 C49         9.7351   28.2393  -18.7867 C.3         1 GYN      -0.0582
     26 O43         8.0639   26.6559  -16.6736 O.3         1 GYN      -0.3622
     27 C37         7.7672   27.9920  -17.1260 C.3         1 GYN       0.0865
     28 C36         6.9030   28.8084  -16.2404 C.2         1 GYN      -0.0553
     29 C38         6.4824   30.1316  -16.6992 C.3         1 GYN      -0.0379
     30 C35         6.4852   28.3350  -15.0467 C.2         1 GYN      -0.1039
     31 C34         5.7886   29.0590  -13.9909 C.3         1 GYN      -0.0315
     32 C33         5.8004   28.3030  -12.6209 C.3         1 GYN       0.0100
     33 C32         7.1136   27.9518  -12.0414 C.2         1 GYN       0.0383
     34 N31         8.0810   28.7192  -12.4238 N.2         1 GYN      -0.2722
     35 C30         9.4222   28.7605  -12.0693 C.3         1 GYN       0.0432
     36 C46         9.8734   27.4742  -11.3554 C.3         1 GYN      -0.0375
     37 C28         8.7761   27.0558  -10.3438 C.3         1 GYN      -0.0530
     38 H1          6.8988   22.9980   -8.0076 H           1 GYN       0.0753
     39 H2          4.8062   22.7714   -7.1291 H           1 GYN       0.0338
     40 H3          4.3445   24.4164   -7.5494 H           1 GYN       0.0338
     41 H4          5.1516   23.3192   -4.9418 H           1 GYN       0.0553
     42 H5          4.5789   25.5350   -4.0214 H           1 GYN       0.0258
     43 H6          3.3488   25.0634   -5.2023 H           1 GYN       0.0258
     44 H7          4.5852   26.2582   -5.6412 H           1 GYN       0.0258
     45 H8          6.4435   22.8540  -11.6066 H           1 GYN       0.0329
     46 H9          5.5482   22.7083  -10.1250 H           1 GYN       0.0329
     47 H10         7.3106   22.4487  -10.1536 H           1 GYN       0.0329
     48 H11         5.9811   25.4700  -11.8611 H           1 GYN       0.0417
     49 H12         5.2592   27.2117  -10.1570 H           1 GYN       0.0226
     50 H13         6.4360   28.3155   -9.4455 H           1 GYN       0.0226
     51 H14         7.3126   26.6258   -8.0227 H           1 GYN       0.0362
     52 H15         5.5660   26.4905   -7.9562 H           1 GYN       0.0362
     53 H16         8.8455   24.7586  -11.9237 H           1 GYN       0.0252
     54 H17         6.0416   25.3302  -14.3326 H           1 GYN       0.0377
     55 H18         5.7516   23.7673  -13.5749 H           1 GYN       0.0377
     56 H19         6.4445   23.8443  -15.1686 H           1 GYN       0.0377
     57 H20         9.8381   23.8293  -13.6976 H           1 GYN       0.0742
     58 H21         8.8016   22.0239  -13.2812 H           1 GYN       0.2129
     59 H22         8.3421   24.0594  -16.3548 H           1 GYN       0.0312
     60 H23         9.8667   23.2509  -16.1180 H           1 GYN       0.0312
     61 H24        10.4258   25.3235  -17.0092 H           1 GYN       0.0293
     62 H25        10.9020   25.3963  -15.3139 H           1 GYN       0.0293
     63 H26         8.9381   26.7720  -14.7904 H           1 GYN       0.0598
     64 H27        11.0478   27.7452  -16.5549 H           1 GYN       0.0295
     65 H28        10.0665   28.6507  -15.3985 H           1 GYN       0.0295
     66 H29         9.1927   29.6768  -17.2809 H           1 GYN       0.0345
     67 H30         9.0986   28.6809  -19.5561 H           1 GYN       0.0235
     68 H31         9.7697   27.1587  -18.9390 H           1 GYN       0.0235
     69 H32        10.7427   28.6424  -18.9059 H           1 GYN       0.0235
     70 H33         7.2266   27.8813  -18.0704 H           1 GYN       0.0747
     71 H34         5.3924   30.2021  -16.6915 H           1 GYN       0.0376
     72 H35         6.8150   30.3417  -17.7174 H           1 GYN       0.0376
     73 H36         6.8943   30.9047  -16.0480 H           1 GYN       0.0376
     74 H37         6.7165   27.4054  -14.8261 H           1 GYN       0.0245
     75 H38         4.7552   29.2295  -14.2974 H           1 GYN       0.0369
     76 H39         6.2533   30.0374  -13.8452 H           1 GYN       0.0369
     77 H40         5.1973   27.4040  -12.7462 H           1 GYN       0.0520
     78 H41         5.2784   28.9380  -11.9013 H           1 GYN       0.0520
     79 H42         9.5780   29.6240  -11.4185 H           1 GYN       0.0507
     80 H43        10.0215   28.9032  -12.9683 H           1 GYN       0.0507
     81 H44        10.8200   27.6553  -10.8401 H           1 GYN       0.0277
     82 H45        10.0484   26.6936  -12.0962 H           1 GYN       0.0277
     83 H46         9.0838   26.1213   -9.8693 H           1 GYN       0.0210
     84 H47         8.7917   27.8200   -9.5611 H           1 GYN       0.0210
@<TRIPOS>BOND
     1     1     2   2
     2     2     3   1
     3     2     6   1
     4     3     4   1
     5     4     5   1
     6     4     8   1
     7     5     6   1
     8     6     7   1
     9     8     9   2
    10     8    14   1
    11     9    10   1
    12     9    11   1
    13    11    12   1
    14    11    15   1
    15    12    13   1
    16    12    33   1
    17    12    37   1
    18    13    14   1
    19    15    16   2
    20    16    17   1
    21    16    18   1
    22    18    19   1
    23    18    20   1
    24    20    21   1
    25    21    22   1
    26    22    23   1
    27    22    26   1
    28    23    24   1
    29    24    25   1
    30    24    27   1
    31    26    27   1
    32    27    28   1
    33    28    29   1
    34    28    30   2
    35    30    31   1
    36    31    32   1
    37    32    33   1
    38    33    34   2
    39    34    35   1
    40    35    36   1
    41    36    37   1
    42     4    38   1
    43     5    39   1
    44     5    40   1
    45     6    41   1
    46     7    42   1
    47     7    43   1
    48     7    44   1
    49    10    45   1
    50    10    46   1
    51    10    47   1
    52    11    48   1
    53    13    49   1
    54    13    50   1
    55    14    51   1
    56    14    52   1
    57    15    53   1
    58    17    54   1
    59    17    55   1
    60    17    56   1
    61    18    57   1
    62    19    58   1
    63    20    59   1
    64    20    60   1
    65    21    61   1
    66    21    62   1
    67    22    63   1
    68    23    64   1
    69    23    65   1
    70    24    66   1
    71    25    67   1
    72    25    68   1
    73    25    69   1
    74    27    70   1
    75    29    71   1
    76    29    72   1
    77    29    73   1
    78    30    74   1
    79    31    75   1
    80    31    76   1
    81    32    77   1
    82    32    78   1
    83    35    79   1
    84    35    80   1
    85    36    81   1
    86    36    82   1
    87    37    83   1
    88    37    84   1
@<TRIPOS>SUBSTRUCTURE
     1  GYN      2

