@<TRIPOS>MOLECULE
2x00_ligand_043
    84    88
SMALL
GAST_HUCK
****
This file was generated by PARSER (from files_GN.cpp)

@<TRIPOS>ATOM
      1 O6          7.2311   25.0444   -4.4662 O.2         1 GYN      -0.3700
      2 C5          6.4206   25.0031   -5.5504 C.2         1 GYN       0.2385
      3 O1          5.7755   26.0917   -6.0088 O.3         1 GYN      -0.2655
      4 C2          5.1280   25.8542   -7.2572 C.3         1 GYN       0.1059
      5 C3          5.2298   24.3214   -7.4749 C.3         1 GYN       0.0041
      6 C4          6.2677   23.8343   -6.4236 C.3         1 GYN       0.0613
      7 C7          5.8544   22.5623   -5.6429 C.3         1 GYN      -0.0438
      8 C8          3.8245   26.5607   -7.3349 C.2         1 GYN      -0.0559
      9 C13         2.6836   26.2330   -6.6556 C.2         1 GYN      -0.0876
     10 C14         2.7194   25.2320   -5.5694 C.3         1 GYN      -0.0498
     11 C12         1.3764   26.9608   -6.8531 C.3         1 GYN      -0.0250
     12 C27         1.3463   28.1087   -7.9730 C.3         1 GYN       0.0148
     13 C10         2.7470   28.7960   -7.8765 C.3         1 GYN      -0.0494
     14 C9          3.8847   27.7916   -8.1278 C.3         1 GYN      -0.0395
     15 C15         0.2745   25.9747   -6.9909 C.2         1 GYN      -0.1023
     16 C16        -0.6893   25.6176   -6.0994 C.2         1 GYN      -0.0548
     17 C19        -0.8990   26.3739   -4.8634 C.3         1 GYN      -0.0377
     18 C17        -1.3591   24.3020   -6.2660 C.3         1 GYN       0.0804
     19 O20        -0.6934   23.4191   -5.3617 O.3         1 GYN      -0.3807
     20 C18        -2.9032   24.1559   -6.0261 C.3         1 GYN      -0.0158
     21 C21        -3.8511   24.5760   -7.1837 C.3         1 GYN      -0.0223
     22 C43        -3.8062   26.0683   -7.5809 C.3         1 GYN       0.0623
     23 C47        -4.7800   26.4427   -8.7156 C.3         1 GYN      -0.0197
     24 C48        -4.8085   27.9739   -8.5884 C.3         1 GYN      -0.0066
     25 C49        -6.0573   28.6383   -9.2200 C.3         1 GYN      -0.0582
     26 O43        -4.1551   26.9376   -6.4960 O.3         1 GYN      -0.3622
     27 C37        -4.6693   28.1662   -7.0501 C.3         1 GYN       0.0865
     28 C36        -3.8485   29.3272   -6.6568 C.2         1 GYN      -0.0553
     29 C38        -4.4956   30.5059   -6.0835 C.3         1 GYN      -0.0379
     30 C35        -2.5061   29.2703   -6.8145 C.2         1 GYN      -0.1039
     31 C34        -1.5397   30.3144   -6.5012 C.3         1 GYN      -0.0315
     32 C33        -0.0382   29.8831   -6.5808 C.3         1 GYN       0.0100
     33 C32         0.3757   29.2393   -7.8336 C.2         1 GYN       0.0383
     34 N31         0.0981   29.9672   -8.8636 N.2         1 GYN      -0.2722
     35 C30         0.4086   29.8134  -10.2123 C.3         1 GYN       0.0432
     36 C46         1.1987   28.5157  -10.5508 C.3         1 GYN      -0.0375
     37 C28         1.0859   27.4809   -9.4048 C.3         1 GYN      -0.0530
     38 H1          5.8321   26.2742   -7.9912 H           1 GYN       0.0753
     39 H2          5.5726   24.0850   -8.4918 H           1 GYN       0.0338
     40 H3          4.2644   23.8215   -7.3460 H           1 GYN       0.0338
     41 H4          7.2317   23.6547   -6.9147 H           1 GYN       0.0553
     42 H5          6.6177   22.3109   -4.9046 H           1 GYN       0.0258
     43 H6          5.7507   21.7224   -6.3392 H           1 GYN       0.0258
     44 H7          4.8996   22.7137   -5.1229 H           1 GYN       0.0258
     45 H8          3.6933   25.1293   -5.0989 H           1 GYN       0.0329
     46 H9          2.4143   24.2534   -5.9602 H           1 GYN       0.0329
     47 H10         2.0458   25.4906   -4.7544 H           1 GYN       0.0329
     48 H11         1.2737   27.4701   -5.9010 H           1 GYN       0.0417
     49 H12         2.8838   29.2202   -6.8743 H           1 GYN       0.0226
     50 H13         2.8610   29.6273   -8.5811 H           1 GYN       0.0226
     51 H14         3.9295   27.5265   -9.1885 H           1 GYN       0.0362
     52 H15         4.8086   28.3338   -7.9027 H           1 GYN       0.0362
     53 H16         0.3590   25.4006   -7.7962 H           1 GYN       0.0252
     54 H17         0.0236   26.5058   -4.3012 H           1 GYN       0.0377
     55 H18        -1.5870   25.8838   -4.1805 H           1 GYN       0.0377
     56 H19        -1.3106   27.3548   -5.0936 H           1 GYN       0.0377
     57 H20        -1.1787   23.8816   -7.2608 H           1 GYN       0.0742
     58 H21         0.2532   23.4472   -5.6117 H           1 GYN       0.2129
     59 H22        -3.2045   24.6621   -5.1151 H           1 GYN       0.0312
     60 H23        -3.1053   23.0918   -5.8592 H           1 GYN       0.0312
     61 H24        -4.8750   24.3289   -6.8836 H           1 GYN       0.0293
     62 H25        -3.6192   23.9634   -8.0592 H           1 GYN       0.0293
     63 H26        -2.7895   26.3085   -7.8986 H           1 GYN       0.0598
     64 H27        -5.7706   26.0143   -8.5295 H           1 GYN       0.0295
     65 H28        -4.4207   26.1184   -9.6933 H           1 GYN       0.0295
     66 H29        -3.9256   28.3699   -9.1067 H           1 GYN       0.0345
     67 H30        -6.0071   29.7211   -9.0879 H           1 GYN       0.0235
     68 H31        -6.9743   28.2712   -8.7538 H           1 GYN       0.0235
     69 H32        -6.0959   28.4197  -10.2885 H           1 GYN       0.0235
     70 H33        -5.6727   28.2450   -6.6209 H           1 GYN       0.0747
     71 H34        -4.1625   30.6491   -5.0538 H           1 GYN       0.0376
     72 H35        -5.5837   30.4270   -6.0680 H           1 GYN       0.0376
     73 H36        -4.2457   31.3942   -6.6665 H           1 GYN       0.0376
     74 H37        -2.1268   28.4390   -7.2020 H           1 GYN       0.0245
     75 H38        -1.7182   30.6756   -5.4824 H           1 GYN       0.0369
     76 H39        -1.7035   31.1537   -7.1830 H           1 GYN       0.0369
     77 H40         0.1592   29.2660   -5.7116 H           1 GYN       0.0520
     78 H41         0.5730   30.7819   -6.4507 H           1 GYN       0.0520
     79 H42         0.9861   30.6850  -10.5349 H           1 GYN       0.0507
     80 H43        -0.5305   29.8236  -10.7659 H           1 GYN       0.0507
     81 H44         2.2499   28.7581  -10.7261 H           1 GYN       0.0277
     82 H45         0.8132   28.0663  -11.4688 H           1 GYN       0.0277
     83 H46         0.0683   27.0849   -9.4479 H           1 GYN       0.0210
     84 H47         1.7608   26.6473   -9.6115 H           1 GYN       0.0210
@<TRIPOS>BOND
     1     1     2   2
     2     2     3   1
     3     2     6   1
     4     3     4   1
     5     4     5   1
     6     4     8   1
     7     5     6   1
     8     6     7   1
     9     8     9   2
    10     8    14   1
    11     9    10   1
    12     9    11   1
    13    11    12   1
    14    11    15   1
    15    12    13   1
    16    12    33   1
    17    12    37   1
    18    13    14   1
    19    15    16   2
    20    16    17   1
    21    16    18   1
    22    18    19   1
    23    18    20   1
    24    20    21   1
    25    21    22   1
    26    22    23   1
    27    22    26   1
    28    23    24   1
    29    24    25   1
    30    24    27   1
    31    26    27   1
    32    27    28   1
    33    28    29   1
    34    28    30   2
    35    30    31   1
    36    31    32   1
    37    32    33   1
    38    33    34   2
    39    34    35   1
    40    35    36   1
    41    36    37   1
    42     4    38   1
    43     5    39   1
    44     5    40   1
    45     6    41   1
    46     7    42   1
    47     7    43   1
    48     7    44   1
    49    10    45   1
    50    10    46   1
    51    10    47   1
    52    11    48   1
    53    13    49   1
    54    13    50   1
    55    14    51   1
    56    14    52   1
    57    15    53   1
    58    17    54   1
    59    17    55   1
    60    17    56   1
    61    18    57   1
    62    19    58   1
    63    20    59   1
    64    20    60   1
    65    21    61   1
    66    21    62   1
    67    22    63   1
    68    23    64   1
    69    23    65   1
    70    24    66   1
    71    25    67   1
    72    25    68   1
    73    25    69   1
    74    27    70   1
    75    29    71   1
    76    29    72   1
    77    29    73   1
    78    30    74   1
    79    31    75   1
    80    31    76   1
    81    32    77   1
    82    32    78   1
    83    35    79   1
    84    35    80   1
    85    36    81   1
    86    36    82   1
    87    37    83   1
    88    37    84   1
@<TRIPOS>SUBSTRUCTURE
     1  GYN      2

