@<TRIPOS>MOLECULE
2x00_ligand_033
    84    88
SMALL
GAST_HUCK
****
This file was generated by PARSER (from files_GN.cpp)

@<TRIPOS>ATOM
      1 O6          9.0383   22.3133  -21.0631 O.2         1 GYN      -0.3700
      2 C5          9.4483   22.2090  -19.7807 C.2         1 GYN       0.2385
      3 O1          8.6170   22.3901  -18.7371 O.3         1 GYN      -0.2655
      4 C2          9.2486   22.1795  -17.4714 C.3         1 GYN       0.1059
      5 C3         10.7128   21.7918  -17.8395 C.3         1 GYN       0.0041
      6 C4         10.8060   21.8288  -19.3897 C.3         1 GYN       0.0613
      7 C7         11.8710   22.8065  -19.9487 C.3         1 GYN      -0.0438
      8 C8          9.1322   23.3399  -16.5572 C.2         1 GYN      -0.0559
      9 C13         9.0088   23.2234  -15.1989 C.2         1 GYN      -0.0876
     10 C14         9.2827   21.9189  -14.5646 C.3         1 GYN      -0.0498
     11 C12         8.7852   24.4050  -14.3055 C.3         1 GYN      -0.0250
     12 C27         8.4005   25.7708  -15.0473 C.3         1 GYN       0.0148
     13 C10         9.3874   25.8572  -16.2625 C.3         1 GYN      -0.0494
     14 C9          9.2519   24.6488  -17.2101 C.3         1 GYN      -0.0395
     15 C15         7.8364   24.0602  -13.2139 C.2         1 GYN      -0.1023
     16 C16         8.0714   23.8837  -11.8940 C.2         1 GYN      -0.0548
     17 C19         9.3926   24.1192  -11.3048 C.3         1 GYN      -0.0377
     18 C17         7.0379   23.2950  -11.0162 C.3         1 GYN       0.0804
     19 O20         7.5299   22.0490  -10.5170 O.3         1 GYN      -0.3807
     20 C18         6.5848   24.1736   -9.8085 C.3         1 GYN      -0.0158
     21 C21         5.4944   25.2337  -10.1334 C.3         1 GYN      -0.0223
     22 C43         5.9991   26.5514  -10.7846 C.3         1 GYN       0.0623
     23 C47         4.8664   27.4923  -11.2481 C.3         1 GYN      -0.0197
     24 C48         5.2758   28.8884  -10.7256 C.3         1 GYN      -0.0066
     25 C49         4.3034   29.4208   -9.6349 C.3         1 GYN      -0.0582
     26 O43         6.7679   27.3022   -9.8240 O.3         1 GYN      -0.3622
     27 C37         6.7336   28.6936  -10.1999 C.3         1 GYN       0.0865
     28 C36         7.7986   29.1330  -11.1299 C.2         1 GYN      -0.0553
     29 C38         7.7952   30.5357  -11.5552 C.3         1 GYN      -0.0379
     30 C35         8.7935   28.3012  -11.5035 C.2         1 GYN      -0.1039
     31 C34         9.8180   28.5271  -12.5191 C.3         1 GYN      -0.0315
     32 C33         9.8617   27.4039  -13.5999 C.3         1 GYN       0.0100
     33 C32         8.6014   27.0410  -14.2714 C.2         1 GYN       0.0383
     34 N31         7.8255   28.0548  -14.4775 N.2         1 GYN      -0.2722
     35 C30         6.6815   28.2095  -15.2557 C.3         1 GYN       0.0432
     36 C46         6.4237   27.0260  -16.2186 C.3         1 GYN      -0.0375
     37 C28         6.8879   25.7188  -15.5380 C.3         1 GYN      -0.0530
     38 H1          8.7358   21.3073  -17.0634 H           1 GYN       0.0753
     39 H2         10.9347   20.7826  -17.4807 H           1 GYN       0.0338
     40 H3         11.4412   22.4662  -17.3805 H           1 GYN       0.0338
     41 H4         11.0091   20.8252  -19.7774 H           1 GYN       0.0553
     42 H5         11.8753   22.7755  -21.0395 H           1 GYN       0.0258
     43 H6         12.8633   22.5203  -19.5949 H           1 GYN       0.0258
     44 H7         11.6698   23.8306  -19.6304 H           1 GYN       0.0258
     45 H8          9.4350   21.9827  -13.4891 H           1 GYN       0.0329
     46 H9         10.1938   21.4680  -14.9649 H           1 GYN       0.0329
     47 H10         8.4438   21.2386  -14.7299 H           1 GYN       0.0329
     48 H11         9.7703   24.5510  -13.8719 H           1 GYN       0.0417
     49 H12        10.4212   25.8672  -15.8996 H           1 GYN       0.0226
     50 H13         9.2491   26.7772  -16.8362 H           1 GYN       0.0226
     51 H14         8.3860   24.8085  -17.8578 H           1 GYN       0.0362
     52 H15        10.1356   24.6583  -17.8534 H           1 GYN       0.0362
     53 H16         6.9311   23.8016  -13.5290 H           1 GYN       0.0252
     54 H17        10.1571   23.5249  -11.8152 H           1 GYN       0.0377
     55 H18         9.4461   23.8458  -10.2454 H           1 GYN       0.0377
     56 H19         9.6570   25.1747  -11.3764 H           1 GYN       0.0377
     57 H20         6.1388   23.0230  -11.5801 H           1 GYN       0.0742
     58 H21         7.6642   21.4793  -11.2994 H           1 GYN       0.2129
     59 H22         7.4300   24.6616   -9.3299 H           1 GYN       0.0312
     60 H23         6.1475   23.5030   -9.0629 H           1 GYN       0.0312
     61 H24         4.9821   25.4987   -9.1924 H           1 GYN       0.0293
     62 H25         4.7435   24.7760  -10.7823 H           1 GYN       0.0293
     63 H26         6.6280   26.3084  -11.6368 H           1 GYN       0.0598
     64 H27         3.8927   27.1863  -10.8544 H           1 GYN       0.0295
     65 H28         4.8040   27.4933  -12.3346 H           1 GYN       0.0295
     66 H29         5.2348   29.5978  -11.5583 H           1 GYN       0.0345
     67 H30         4.6163   30.4142   -9.3085 H           1 GYN       0.0235
     68 H31         4.2873   28.7491   -8.7733 H           1 GYN       0.0235
     69 H32         3.2924   29.4985  -10.0379 H           1 GYN       0.0235
     70 H33         6.8853   29.2559   -9.2805 H           1 GYN       0.0747
     71 H34         8.7628   31.0016  -11.3501 H           1 GYN       0.0376
     72 H35         7.0430   31.1314  -11.0326 H           1 GYN       0.0376
     73 H36         7.5880   30.6016  -12.6255 H           1 GYN       0.0376
     74 H37         8.8561   27.4195  -11.0560 H           1 GYN       0.0245
     75 H38        10.7880   28.5644  -12.0167 H           1 GYN       0.0369
     76 H39         9.6937   29.4807  -13.0327 H           1 GYN       0.0369
     77 H40        10.3120   26.5334  -13.1309 H           1 GYN       0.0520
     78 H41        10.5657   27.7323  -14.3702 H           1 GYN       0.0520
     79 H42         6.7786   29.1290  -15.8367 H           1 GYN       0.0507
     80 H43         5.8316   28.3275  -14.5799 H           1 GYN       0.0507
     81 H44         6.9641   27.1762  -17.1558 H           1 GYN       0.0277
     82 H45         5.3577   26.9665  -16.4585 H           1 GYN       0.0277
     83 H46         6.2195   25.5895  -14.6831 H           1 GYN       0.0210
     84 H47         6.7023   24.8778  -16.2081 H           1 GYN       0.0210
@<TRIPOS>BOND
     1     1     2   2
     2     2     3   1
     3     2     6   1
     4     3     4   1
     5     4     5   1
     6     4     8   1
     7     5     6   1
     8     6     7   1
     9     8     9   2
    10     8    14   1
    11     9    10   1
    12     9    11   1
    13    11    12   1
    14    11    15   1
    15    12    13   1
    16    12    33   1
    17    12    37   1
    18    13    14   1
    19    15    16   2
    20    16    17   1
    21    16    18   1
    22    18    19   1
    23    18    20   1
    24    20    21   1
    25    21    22   1
    26    22    23   1
    27    22    26   1
    28    23    24   1
    29    24    25   1
    30    24    27   1
    31    26    27   1
    32    27    28   1
    33    28    29   1
    34    28    30   2
    35    30    31   1
    36    31    32   1
    37    32    33   1
    38    33    34   2
    39    34    35   1
    40    35    36   1
    41    36    37   1
    42     4    38   1
    43     5    39   1
    44     5    40   1
    45     6    41   1
    46     7    42   1
    47     7    43   1
    48     7    44   1
    49    10    45   1
    50    10    46   1
    51    10    47   1
    52    11    48   1
    53    13    49   1
    54    13    50   1
    55    14    51   1
    56    14    52   1
    57    15    53   1
    58    17    54   1
    59    17    55   1
    60    17    56   1
    61    18    57   1
    62    19    58   1
    63    20    59   1
    64    20    60   1
    65    21    61   1
    66    21    62   1
    67    22    63   1
    68    23    64   1
    69    23    65   1
    70    24    66   1
    71    25    67   1
    72    25    68   1
    73    25    69   1
    74    27    70   1
    75    29    71   1
    76    29    72   1
    77    29    73   1
    78    30    74   1
    79    31    75   1
    80    31    76   1
    81    32    77   1
    82    32    78   1
    83    35    79   1
    84    35    80   1
    85    36    81   1
    86    36    82   1
    87    37    83   1
    88    37    84   1
@<TRIPOS>SUBSTRUCTURE
     1  GYN      2

