@<TRIPOS>MOLECULE
2x00_ligand_021
    84    88
SMALL
GAST_HUCK
****
This file was generated by PARSER (from files_GN.cpp)

@<TRIPOS>ATOM
      1 O6          4.8617   30.1862   -9.8916 O.2         1 GYN      -0.3700
      2 C5          5.2375   28.8909   -9.9789 C.2         1 GYN       0.2385
      3 O1          6.4637   28.5219  -10.3946 O.3         1 GYN      -0.2655
      4 C2          6.6753   27.1082  -10.3926 C.3         1 GYN       0.1059
      5 C3          5.3216   26.5482   -9.8616 C.3         1 GYN       0.0041
      6 C4          4.4048   27.7646   -9.5660 C.3         1 GYN       0.0613
      7 C7          3.0427   27.7267  -10.3049 C.3         1 GYN      -0.0438
      8 C8          7.0946   26.5523  -11.7054 C.2         1 GYN      -0.0559
      9 C13         7.7347   25.3494  -11.8405 C.2         1 GYN      -0.0876
     10 C14         7.7712   24.4246  -10.6896 C.3         1 GYN      -0.0498
     11 C12         8.2909   24.8726  -13.1539 C.3         1 GYN      -0.0250
     12 C27         8.3538   25.9780  -14.3091 C.3         1 GYN       0.0148
     13 C10         6.9659   26.7042  -14.2509 C.3         1 GYN      -0.0494
     14 C9          6.7211   27.3599  -12.8742 C.3         1 GYN      -0.0395
     15 C15         9.5986   24.2020  -12.9698 C.2         1 GYN      -0.1023
     16 C16         9.9269   22.8854  -13.0749 C.2         1 GYN      -0.0548
     17 C19         8.9135   21.8722  -13.3851 C.3         1 GYN      -0.0377
     18 C17        11.2584   22.4273  -12.6092 C.3         1 GYN       0.0804
     19 O20        11.0523   21.7651  -11.3590 O.3         1 GYN      -0.3807
     20 C18        12.1012   21.4688  -13.5118 C.3         1 GYN      -0.0158
     21 C21        12.8425   22.0970  -14.7254 C.3         1 GYN      -0.0223
     22 C43        11.9516   22.4817  -15.9323 C.3         1 GYN       0.0623
     23 C47        12.7377   22.9550  -17.1801 C.3         1 GYN      -0.0197
     24 C48        12.3262   21.9686  -18.2934 C.3         1 GYN      -0.0066
     25 C49        13.3795   20.8473  -18.5113 C.3         1 GYN      -0.0582
     26 O43        11.1715   21.3482  -16.3574 O.3         1 GYN      -0.3622
     27 C37        10.9643   21.4199  -17.7810 C.3         1 GYN       0.0865
     28 C36         9.7796   22.1895  -18.2315 C.2         1 GYN      -0.0553
     29 C38         9.4599   22.2114  -19.6588 C.3         1 GYN      -0.0379
     30 C35         8.9954   22.8377  -17.3431 C.2         1 GYN      -0.1039
     31 C34         7.9051   23.7628  -17.6151 C.3         1 GYN      -0.0315
     32 C33         7.4761   24.5906  -16.3596 C.3         1 GYN       0.0100
     33 C32         8.5083   25.4084  -15.6907 C.2         1 GYN       0.0383
     34 N31         9.4920   25.7529  -16.4538 N.2         1 GYN      -0.2722
     35 C30        10.6011   26.5567  -16.2257 C.3         1 GYN       0.0432
     36 C46        10.8404   26.8032  -14.7261 C.3         1 GYN      -0.0375
     37 C28         9.4828   27.0699  -14.0323 C.3         1 GYN      -0.0530
     38 H1          7.4678   26.9485   -9.6579 H           1 GYN       0.0753
     39 H2          5.4834   25.9756   -8.9441 H           1 GYN       0.0338
     40 H3          4.8575   25.8796  -10.5926 H           1 GYN       0.0338
     41 H4          4.2265   27.8455   -8.4889 H           1 GYN       0.0553
     42 H5          2.4622   28.6208  -10.0686 H           1 GYN       0.0258
     43 H6          2.4721   26.8530   -9.9840 H           1 GYN       0.0258
     44 H7          3.1851   27.6750  -11.3869 H           1 GYN       0.0258
     45 H8          8.1195   23.4288  -10.9425 H           1 GYN       0.0329
     46 H9          6.7768   24.2809  -10.2711 H           1 GYN       0.0329
     47 H10         8.4358   24.8123   -9.9166 H           1 GYN       0.0329
     48 H11         7.5625   24.1263  -13.4674 H           1 GYN       0.0417
     49 H12         6.1516   25.9926  -14.4153 H           1 GYN       0.0226
     50 H13         6.8891   27.4700  -15.0295 H           1 GYN       0.0226
     51 H14         7.2685   28.3069  -12.8356 H           1 GYN       0.0362
     52 H15         5.6546   27.5994  -12.8199 H           1 GYN       0.0362
     53 H16        10.2963   24.7979  -12.5930 H           1 GYN       0.0252
     54 H17         8.4890   22.0461  -14.3681 H           1 GYN       0.0377
     55 H18         8.1049   21.8972  -12.6564 H           1 GYN       0.0377
     56 H19         9.3067   20.8569  -13.3699 H           1 GYN       0.0377
     57 H20        11.9148   23.2730  -12.3924 H           1 GYN       0.0742
     58 H21        10.4315   22.3291  -10.8499 H           1 GYN       0.2129
     59 H22        11.5012   20.6263  -13.8535 H           1 GYN       0.0312
     60 H23        12.8855   21.0409  -12.8781 H           1 GYN       0.0312
     61 H24        13.5725   21.3641  -15.0753 H           1 GYN       0.0293
     62 H25        13.3975   22.9794  -14.3905 H           1 GYN       0.0293
     63 H26        11.2863   23.2862  -15.6065 H           1 GYN       0.0598
     64 H27        13.8187   22.9738  -17.0217 H           1 GYN       0.0295
     65 H28        12.4236   23.9661  -17.4564 H           1 GYN       0.0295
     66 H29        12.2195   22.5055  -19.2429 H           1 GYN       0.0345
     67 H30        13.0362   20.1547  -19.2833 H           1 GYN       0.0235
     68 H31        13.5539   20.2878  -17.5903 H           1 GYN       0.0235
     69 H32        14.3261   21.2812  -18.8418 H           1 GYN       0.0235
     70 H33        10.8163   20.3913  -18.1204 H           1 GYN       0.0747
     71 H34         8.4429   21.8553  -19.8205 H           1 GYN       0.0376
     72 H35        10.1226   21.5677  -20.2419 H           1 GYN       0.0376
     73 H36         9.5469   23.2262  -20.0508 H           1 GYN       0.0376
     74 H37         9.2012   22.7160  -16.3895 H           1 GYN       0.0245
     75 H38         7.0435   23.1935  -17.9675 H           1 GYN       0.0369
     76 H39         8.1965   24.4610  -18.4039 H           1 GYN       0.0369
     77 H40         7.0396   23.8877  -15.6487 H           1 GYN       0.0520
     78 H41         6.6723   25.2593  -16.6782 H           1 GYN       0.0520
     79 H42        10.4461   27.5065  -16.7416 H           1 GYN       0.0507
     80 H43        11.4806   26.0765  -16.6564 H           1 GYN       0.0507
     81 H44        11.5118   27.6557  -14.5884 H           1 GYN       0.0277
     82 H45        11.3266   25.9260  -14.3062 H           1 GYN       0.0277
     83 H46         9.6645   27.1880  -12.9607 H           1 GYN       0.0210
     84 H47         9.1575   28.0479  -14.4011 H           1 GYN       0.0210
@<TRIPOS>BOND
     1     1     2   2
     2     2     3   1
     3     2     6   1
     4     3     4   1
     5     4     5   1
     6     4     8   1
     7     5     6   1
     8     6     7   1
     9     8     9   2
    10     8    14   1
    11     9    10   1
    12     9    11   1
    13    11    12   1
    14    11    15   1
    15    12    13   1
    16    12    33   1
    17    12    37   1
    18    13    14   1
    19    15    16   2
    20    16    17   1
    21    16    18   1
    22    18    19   1
    23    18    20   1
    24    20    21   1
    25    21    22   1
    26    22    23   1
    27    22    26   1
    28    23    24   1
    29    24    25   1
    30    24    27   1
    31    26    27   1
    32    27    28   1
    33    28    29   1
    34    28    30   2
    35    30    31   1
    36    31    32   1
    37    32    33   1
    38    33    34   2
    39    34    35   1
    40    35    36   1
    41    36    37   1
    42     4    38   1
    43     5    39   1
    44     5    40   1
    45     6    41   1
    46     7    42   1
    47     7    43   1
    48     7    44   1
    49    10    45   1
    50    10    46   1
    51    10    47   1
    52    11    48   1
    53    13    49   1
    54    13    50   1
    55    14    51   1
    56    14    52   1
    57    15    53   1
    58    17    54   1
    59    17    55   1
    60    17    56   1
    61    18    57   1
    62    19    58   1
    63    20    59   1
    64    20    60   1
    65    21    61   1
    66    21    62   1
    67    22    63   1
    68    23    64   1
    69    23    65   1
    70    24    66   1
    71    25    67   1
    72    25    68   1
    73    25    69   1
    74    27    70   1
    75    29    71   1
    76    29    72   1
    77    29    73   1
    78    30    74   1
    79    31    75   1
    80    31    76   1
    81    32    77   1
    82    32    78   1
    83    35    79   1
    84    35    80   1
    85    36    81   1
    86    36    82   1
    87    37    83   1
    88    37    84   1
@<TRIPOS>SUBSTRUCTURE
     1  GYN      2

