@<TRIPOS>MOLECULE
2x00_ligand_002
    84    88
SMALL
GAST_HUCK
****
This file was generated by PARSER (from files_GN.cpp)

@<TRIPOS>ATOM
      1 O6         15.0811   19.8155  -18.9651 O.2         1 GYN      -0.3700
      2 C5         13.8354   20.3272  -19.0514 C.2         1 GYN       0.2385
      3 O1         13.6088   21.6574  -19.0114 O.3         1 GYN      -0.2655
      4 C2         12.2319   21.9902  -19.1586 C.3         1 GYN       0.1059
      5 C3         11.5160   20.6140  -19.2510 C.3         1 GYN       0.0041
      6 C4         12.6273   19.5354  -19.2939 C.3         1 GYN       0.0613
      7 C7         12.4311   18.3702  -18.2887 C.3         1 GYN      -0.0438
      8 C8         11.6577   22.8985  -18.1256 C.2         1 GYN      -0.0559
      9 C13        11.7404   22.7006  -16.7759 C.2         1 GYN      -0.0876
     10 C14        12.8662   21.9180  -16.2380 C.3         1 GYN      -0.0498
     11 C12        10.8258   23.3664  -15.7876 C.3         1 GYN      -0.0250
     12 C27         9.6571   24.2732  -16.4225 C.3         1 GYN       0.0148
     13 C10        10.3205   25.0116  -17.6372 C.3         1 GYN      -0.0494
     14 C9         10.9011   24.0291  -18.6757 C.3         1 GYN      -0.0395
     15 C15        10.3360   22.3444  -14.8260 C.2         1 GYN      -0.1023
     16 C16        10.7006   22.1192  -13.5356 C.2         1 GYN      -0.0548
     17 C19        11.6174   23.0132  -12.8290 C.3         1 GYN      -0.0377
     18 C17        10.2807   20.8769  -12.8427 C.3         1 GYN       0.0804
     19 O20        11.4494   20.0986  -12.5694 O.3         1 GYN      -0.3807
     20 C18         9.5202   21.0401  -11.4847 C.3         1 GYN      -0.0158
     21 C21         8.0194   21.4352  -11.5658 C.3         1 GYN      -0.0223
     22 C43         7.7522   22.9287  -11.8687 C.3         1 GYN       0.0623
     23 C47         6.2676   23.3604  -11.7922 C.3         1 GYN      -0.0197
     24 C48         6.2385   24.4977  -10.7464 C.3         1 GYN      -0.0066
     25 C49         5.6729   24.0283   -9.3762 C.3         1 GYN      -0.0582
     26 O43         8.4625   23.7408  -10.9172 O.3         1 GYN      -0.3622
     27 C37         7.7258   24.9470  -10.6591 C.3         1 GYN       0.0865
     28 C36         8.0707   26.1120  -11.5035 C.2         1 GYN      -0.0553
     29 C38         7.5497   27.4231  -11.1239 C.3         1 GYN      -0.0379
     30 C35         8.8687   25.9747  -12.5889 C.2         1 GYN      -0.1039
     31 C34         9.2552   26.9870  -13.5548 C.3         1 GYN      -0.0315
     32 C33         9.8953   26.3867  -14.8522 C.3         1 GYN       0.0100
     33 C32         9.0967   25.3703  -15.5603 C.2         1 GYN       0.0383
     34 N31         7.8554   25.7266  -15.6792 N.2         1 GYN      -0.2722
     35 C30         6.8029   25.2159  -16.4285 C.3         1 GYN       0.0432
     36 C46         7.2486   24.1671  -17.4727 C.3         1 GYN      -0.0375
     37 C28         8.4462   23.3656  -16.9078 C.3         1 GYN      -0.0530
     38 H1         12.1817   22.4531  -20.1515 H           1 GYN       0.0753
     39 H2         10.9001   20.5692  -20.1563 H           1 GYN       0.0338
     40 H3         10.8581   20.4536  -18.3926 H           1 GYN       0.0338
     41 H4         12.6940   19.1098  -20.3020 H           1 GYN       0.0553
     42 H5         13.2722   17.6793  -18.3372 H           1 GYN       0.0258
     43 H6         11.5181   17.8279  -18.5335 H           1 GYN       0.0258
     44 H7         12.3447   18.7188  -17.2585 H           1 GYN       0.0258
     45 H8         13.8167   22.3108  -16.5976 H           1 GYN       0.0329
     46 H9         12.7642   20.8789  -16.5293 H           1 GYN       0.0329
     47 H10        12.9392   21.9135  -15.1590 H           1 GYN       0.0329
     48 H11        11.4972   24.0417  -15.2679 H           1 GYN       0.0417
     49 H12        11.1483   25.6352  -17.2857 H           1 GYN       0.0226
     50 H13         9.6170   25.6804  -18.1389 H           1 GYN       0.0226
     51 H14        10.0879   23.6500  -19.2996 H           1 GYN       0.0362
     52 H15        11.5614   24.6037  -19.3288 H           1 GYN       0.0362
     53 H16         9.7724   21.6400  -15.2416 H           1 GYN       0.0252
     54 H17        12.5468   23.1720  -13.3719 H           1 GYN       0.0377
     55 H18        11.9026   22.6287  -11.8515 H           1 GYN       0.0377
     56 H19        11.1420   23.9745  -12.6785 H           1 GYN       0.0377
     57 H20         9.6549   20.2459  -13.4804 H           1 GYN       0.0742
     58 H21        11.7941   19.7826  -13.4361 H           1 GYN       0.2129
     59 H22        10.0485   21.7254  -10.8204 H           1 GYN       0.0312
     60 H23         9.5417   20.0729  -10.9771 H           1 GYN       0.0312
     61 H24         7.5608   21.1991  -10.6014 H           1 GYN       0.0293
     62 H25         7.5336   20.8206  -12.3257 H           1 GYN       0.0293
     63 H26         8.1188   23.1279  -12.8781 H           1 GYN       0.0598
     64 H27         5.6063   22.5338  -11.5190 H           1 GYN       0.0295
     65 H28         5.9421   23.7407  -12.7657 H           1 GYN       0.0295
     66 H29         5.5947   25.3082  -11.1046 H           1 GYN       0.0345
     67 H30         5.6842   24.8561   -8.6651 H           1 GYN       0.0235
     68 H31         6.2681   23.2079   -8.9695 H           1 GYN       0.0235
     69 H32         4.6410   23.6897   -9.4900 H           1 GYN       0.0235
     70 H33         7.9842   25.2232   -9.6321 H           1 GYN       0.0747
     71 H34         8.3738   28.1213  -10.9616 H           1 GYN       0.0376
     72 H35         6.9661   27.3849  -10.2005 H           1 GYN       0.0376
     73 H36         6.8991   27.8133  -11.9086 H           1 GYN       0.0376
     74 H37         9.2129   25.0778  -12.7796 H           1 GYN       0.0245
     75 H38         9.9703   27.6664  -13.0844 H           1 GYN       0.0369
     76 H39         8.3800   27.5728  -13.8467 H           1 GYN       0.0369
     77 H40        10.8751   26.0015  -14.5836 H           1 GYN       0.0520
     78 H41        10.0692   27.2145  -15.5449 H           1 GYN       0.0520
     79 H42         6.3077   26.0438  -16.9404 H           1 GYN       0.0507
     80 H43         6.0856   24.7683  -15.7361 H           1 GYN       0.0507
     81 H44         7.5285   24.6579  -18.4080 H           1 GYN       0.0277
     82 H45         6.4138   23.4955  -17.6889 H           1 GYN       0.0277
     83 H46         8.0374   22.8143  -16.0589 H           1 GYN       0.0210
     84 H47         8.7586   22.6208  -17.6417 H           1 GYN       0.0210
@<TRIPOS>BOND
     1     1     2   2
     2     2     3   1
     3     2     6   1
     4     3     4   1
     5     4     5   1
     6     4     8   1
     7     5     6   1
     8     6     7   1
     9     8     9   2
    10     8    14   1
    11     9    10   1
    12     9    11   1
    13    11    12   1
    14    11    15   1
    15    12    13   1
    16    12    33   1
    17    12    37   1
    18    13    14   1
    19    15    16   2
    20    16    17   1
    21    16    18   1
    22    18    19   1
    23    18    20   1
    24    20    21   1
    25    21    22   1
    26    22    23   1
    27    22    26   1
    28    23    24   1
    29    24    25   1
    30    24    27   1
    31    26    27   1
    32    27    28   1
    33    28    29   1
    34    28    30   2
    35    30    31   1
    36    31    32   1
    37    32    33   1
    38    33    34   2
    39    34    35   1
    40    35    36   1
    41    36    37   1
    42     4    38   1
    43     5    39   1
    44     5    40   1
    45     6    41   1
    46     7    42   1
    47     7    43   1
    48     7    44   1
    49    10    45   1
    50    10    46   1
    51    10    47   1
    52    11    48   1
    53    13    49   1
    54    13    50   1
    55    14    51   1
    56    14    52   1
    57    15    53   1
    58    17    54   1
    59    17    55   1
    60    17    56   1
    61    18    57   1
    62    19    58   1
    63    20    59   1
    64    20    60   1
    65    21    61   1
    66    21    62   1
    67    22    63   1
    68    23    64   1
    69    23    65   1
    70    24    66   1
    71    25    67   1
    72    25    68   1
    73    25    69   1
    74    27    70   1
    75    29    71   1
    76    29    72   1
    77    29    73   1
    78    30    74   1
    79    31    75   1
    80    31    76   1
    81    32    77   1
    82    32    78   1
    83    35    79   1
    84    35    80   1
    85    36    81   1
    86    36    82   1
    87    37    83   1
    88    37    84   1
@<TRIPOS>SUBSTRUCTURE
     1  GYN      2

