@<TRIPOS>MOLECULE
2x00_ligand_004
    84    88
SMALL
GAST_HUCK
****
This file was generated by PARSER (from files_GN.cpp)

@<TRIPOS>ATOM
      1 O6          9.2306   25.0395  -11.1682 O.2         1 GYN      -0.3700
      2 C5          7.8839   25.0355  -11.0128 C.2         1 GYN       0.2385
      3 O1          7.1919   26.1573  -10.7251 O.3         1 GYN      -0.2655
      4 C2          5.7865   25.9333  -10.6415 C.3         1 GYN       0.1059
      5 C3          5.6331   24.3902  -10.8271 C.3         1 GYN       0.0041
      6 C4          7.0404   23.8538  -11.2035 C.3         1 GYN       0.0613
      7 C7          7.4810   22.6347  -10.3529 C.3         1 GYN      -0.0438
      8 C8          5.1110   26.4804   -9.4298 C.2         1 GYN      -0.0559
      9 C13         5.5186   26.2399   -8.1475 C.2         1 GYN      -0.0876
     10 C14         6.9387   25.9142   -7.9037 C.3         1 GYN      -0.0498
     11 C12         4.6257   26.4599   -6.9530 C.3         1 GYN      -0.0250
     12 C27         3.1007   26.8454   -7.2826 C.3         1 GYN       0.0148
     13 C10         3.1901   27.8673   -8.4696 C.3         1 GYN      -0.0494
     14 C9          3.9110   27.2791   -9.7027 C.3         1 GYN      -0.0395
     15 C15         4.7550   25.2956   -6.0447 C.2         1 GYN      -0.1023
     16 C16         5.4116   25.1826   -4.8586 C.2         1 GYN      -0.0548
     17 C19         5.9976   26.3483   -4.1810 C.3         1 GYN      -0.0377
     18 C17         5.7232   23.8288   -4.3476 C.3         1 GYN       0.0804
     19 O20         7.1376   23.6759   -4.4202 O.3         1 GYN      -0.3807
     20 C18         5.2711   23.4438   -2.9068 C.3         1 GYN      -0.0158
     21 C21         3.7523   23.1598   -2.7220 C.3         1 GYN      -0.0223
     22 C43         2.8453   24.4171   -2.7487 C.3         1 GYN       0.0623
     23 C47         1.3643   24.1817   -2.3694 C.3         1 GYN      -0.0197
     24 C48         1.1003   25.1436   -1.1877 C.3         1 GYN      -0.0066
     25 C49         1.0250   24.4044    0.1739 C.3         1 GYN      -0.0582
     26 O43         3.3587   25.4012   -1.8333 O.3         1 GYN      -0.3622
     27 C37         2.2766   26.1594   -1.2702 C.3         1 GYN       0.0865
     28 C36         1.9522   27.4255   -1.9661 C.2         1 GYN      -0.0553
     29 C38         1.0544   28.3702   -1.2998 C.3         1 GYN      -0.0379
     30 C35         2.4729   27.7110   -3.1791 C.2         1 GYN      -0.1039
     31 C34         2.2521   28.8906   -4.0027 C.3         1 GYN      -0.0315
     32 C33         2.7990   28.7460   -5.4622 C.3         1 GYN       0.0100
     33 C32         2.3343   27.5573   -6.2038 C.2         1 GYN       0.0383
     34 N31         1.0570   27.3782   -6.0914 N.2         1 GYN      -0.2722
     35 C30         0.1685   26.5223   -6.7347 C.3         1 GYN       0.0432
     36 C46         0.7826   25.8235   -7.9700 C.3         1 GYN      -0.0375
     37 C28         2.2791   25.5483   -7.7025 C.3         1 GYN      -0.0530
     38 H1          5.3894   26.4100  -11.5485 H           1 GYN       0.0753
     39 H2          4.9273   24.1609  -11.6338 H           1 GYN       0.0338
     40 H3          5.2454   23.9172   -9.9130 H           1 GYN       0.0338
     41 H4          7.0778   23.5799  -12.2668 H           1 GYN       0.0553
     42 H5          8.5181   22.3747  -10.5763 H           1 GYN       0.0258
     43 H6          6.8488   21.7749  -10.5955 H           1 GYN       0.0258
     44 H7          7.3888   22.8651   -9.2856 H           1 GYN       0.0258
     45 H8          7.5777   26.6718   -8.3693 H           1 GYN       0.0329
     46 H9          7.1846   24.9275   -8.2973 H           1 GYN       0.0329
     47 H10         7.2025   25.9067   -6.8489 H           1 GYN       0.0329
     48 H11         5.0753   27.3238   -6.4719 H           1 GYN       0.0417
     49 H12         3.7519   28.7482   -8.1488 H           1 GYN       0.0226
     50 H13         2.2053   28.2180   -8.7806 H           1 GYN       0.0226
     51 H14         3.2018   26.6596  -10.2532 H           1 GYN       0.0362
     52 H15         4.1838   28.1172  -10.3521 H           1 GYN       0.0362
     53 H16         4.4470   24.4438   -6.4543 H           1 GYN       0.0252
     54 H17         6.7745   26.8046   -4.7913 H           1 GYN       0.0377
     55 H18         6.4574   26.0874   -3.2285 H           1 GYN       0.0377
     56 H19         5.2451   27.1036   -3.9820 H           1 GYN       0.0377
     57 H20         5.3294   23.0427   -4.9996 H           1 GYN       0.0742
     58 H21         7.3531   23.7300   -5.3774 H           1 GYN       0.2129
     59 H22         5.6070   24.1917   -2.1870 H           1 GYN       0.0312
     60 H23         5.7880   22.5168   -2.6408 H           1 GYN       0.0312
     61 H24         3.6172   22.6578   -1.7611 H           1 GYN       0.0293
     62 H25         3.4241   22.4680   -3.5013 H           1 GYN       0.0293
     63 H26         2.8730   24.8114   -3.7664 H           1 GYN       0.0598
     64 H27         1.1625   23.1375   -2.1128 H           1 GYN       0.0295
     65 H28         0.7175   24.4470   -3.2129 H           1 GYN       0.0295
     66 H29         0.1419   25.6491   -1.3318 H           1 GYN       0.0345
     67 H30         0.8437   25.1198    0.9783 H           1 GYN       0.0235
     68 H31         1.9549   23.8704    0.3797 H           1 GYN       0.0235
     69 H32         0.2009   23.6873    0.1641 H           1 GYN       0.0235
     70 H33         2.6157   26.4337   -0.2666 H           1 GYN       0.0747
     71 H34         1.5563   29.3290   -1.1597 H           1 GYN       0.0376
     72 H35         0.7378   28.0170   -0.3155 H           1 GYN       0.0376
     73 H36         0.1553   28.5211   -1.8997 H           1 GYN       0.0376
     74 H37         3.0528   27.0339   -3.5861 H           1 GYN       0.0245
     75 H38         2.7373   29.7462   -3.5271 H           1 GYN       0.0369
     76 H39         1.1808   29.1011   -4.0556 H           1 GYN       0.0369
     77 H40         3.8829   28.7894   -5.4060 H           1 GYN       0.0520
     78 H41         2.4850   29.6314   -6.0214 H           1 GYN       0.0520
     79 H42        -0.7067   27.0973   -7.0413 H           1 GYN       0.0507
     80 H43        -0.1564   25.7768   -6.0054 H           1 GYN       0.0507
     81 H44         0.6663   26.4521   -8.8556 H           1 GYN       0.0277
     82 H45         0.2547   24.8852   -8.1619 H           1 GYN       0.0277
     83 H46         2.2875   24.8188   -6.8878 H           1 GYN       0.0210
     84 H47         2.7162   25.0534   -8.5718 H           1 GYN       0.0210
@<TRIPOS>BOND
     1     1     2   2
     2     2     3   1
     3     2     6   1
     4     3     4   1
     5     4     5   1
     6     4     8   1
     7     5     6   1
     8     6     7   1
     9     8     9   2
    10     8    14   1
    11     9    10   1
    12     9    11   1
    13    11    12   1
    14    11    15   1
    15    12    13   1
    16    12    33   1
    17    12    37   1
    18    13    14   1
    19    15    16   2
    20    16    17   1
    21    16    18   1
    22    18    19   1
    23    18    20   1
    24    20    21   1
    25    21    22   1
    26    22    23   1
    27    22    26   1
    28    23    24   1
    29    24    25   1
    30    24    27   1
    31    26    27   1
    32    27    28   1
    33    28    29   1
    34    28    30   2
    35    30    31   1
    36    31    32   1
    37    32    33   1
    38    33    34   2
    39    34    35   1
    40    35    36   1
    41    36    37   1
    42     4    38   1
    43     5    39   1
    44     5    40   1
    45     6    41   1
    46     7    42   1
    47     7    43   1
    48     7    44   1
    49    10    45   1
    50    10    46   1
    51    10    47   1
    52    11    48   1
    53    13    49   1
    54    13    50   1
    55    14    51   1
    56    14    52   1
    57    15    53   1
    58    17    54   1
    59    17    55   1
    60    17    56   1
    61    18    57   1
    62    19    58   1
    63    20    59   1
    64    20    60   1
    65    21    61   1
    66    21    62   1
    67    22    63   1
    68    23    64   1
    69    23    65   1
    70    24    66   1
    71    25    67   1
    72    25    68   1
    73    25    69   1
    74    27    70   1
    75    29    71   1
    76    29    72   1
    77    29    73   1
    78    30    74   1
    79    31    75   1
    80    31    76   1
    81    32    77   1
    82    32    78   1
    83    35    79   1
    84    35    80   1
    85    36    81   1
    86    36    82   1
    87    37    83   1
    88    37    84   1
@<TRIPOS>SUBSTRUCTURE
     1  GYN      2

