@<TRIPOS>MOLECULE
2x00_ligand_008
    84    88
SMALL
GAST_HUCK
****
This file was generated by PARSER (from files_GN.cpp)

@<TRIPOS>ATOM
      1 O6          0.8357   25.0684   -8.3933 O.2         1 GYN      -0.3700
      2 C5          2.1198   25.4903   -8.3621 C.2         1 GYN       0.2385
      3 O1          2.8458   25.6625   -9.4840 O.3         1 GYN      -0.2655
      4 C2          4.1224   26.2419   -9.2461 C.3         1 GYN       0.1059
      5 C3          4.1850   26.4180   -7.7008 C.3         1 GYN       0.0041
      6 C4          2.8143   25.9360   -7.1520 C.3         1 GYN       0.0613
      7 C7          2.9208   24.8162   -6.0866 C.3         1 GYN      -0.0438
      8 C8          5.2311   25.4572   -9.8475 C.2         1 GYN      -0.0559
      9 C13         6.2883   26.0327  -10.4961 C.2         1 GYN      -0.0876
     10 C14         6.5402   27.4760  -10.3053 C.3         1 GYN      -0.0498
     11 C12         7.2991   25.2308  -11.2648 C.3         1 GYN      -0.0250
     12 C27         6.9010   23.7049  -11.5370 C.3         1 GYN       0.0148
     13 C10         6.3512   23.1814  -10.1638 C.3         1 GYN      -0.0494
     14 C9          5.1307   23.9982   -9.6796 C.3         1 GYN      -0.0395
     15 C15         7.6993   25.9440  -12.5016 C.2         1 GYN      -0.1023
     16 C16         8.8608   26.5966  -12.7720 C.2         1 GYN      -0.0548
     17 C19         9.9727   26.5817  -11.8191 C.3         1 GYN      -0.0377
     18 C17         8.9342   27.5345  -13.9168 C.3         1 GYN       0.0804
     19 O20         8.9223   28.8528  -13.3603 O.3         1 GYN      -0.3807
     20 C18        10.1583   27.4395  -14.8878 C.3         1 GYN      -0.0158
     21 C21        10.0877   26.3835  -16.0243 C.3         1 GYN      -0.0223
     22 C43        10.2840   24.9127  -15.5792 C.3         1 GYN       0.0623
     23 C47        10.3761   23.9207  -16.7524 C.3         1 GYN      -0.0197
     24 C48        11.0656   22.7084  -16.1038 C.3         1 GYN      -0.0066
     25 C49        11.8342   21.8208  -17.1159 C.3         1 GYN      -0.0582
     26 O43        11.5133   24.7289  -14.8572 O.3         1 GYN      -0.3622
     27 C37        11.9480   23.3594  -14.9954 C.3         1 GYN       0.0865
     28 C36        11.9131   22.6055  -13.7260 C.2         1 GYN      -0.0553
     29 C38        12.8401   21.4971  -13.5151 C.3         1 GYN      -0.0379
     30 C35        10.9300   22.8616  -12.8376 C.2         1 GYN      -0.1039
     31 C34        10.5129   22.0344  -11.7143 C.3         1 GYN      -0.0315
     32 C33         9.1951   22.5299  -11.0364 C.3         1 GYN       0.0100
     33 C32         8.0480   22.8164  -11.9195 C.2         1 GYN       0.0383
     34 N31         8.0442   22.1410  -13.0215 N.2         1 GYN      -0.2722
     35 C30         7.1810   22.1437  -14.1068 C.3         1 GYN       0.0432
     36 C46         6.2203   23.3464  -14.0721 C.3         1 GYN      -0.0375
     37 C28         5.7393   23.5759  -12.6166 C.3         1 GYN      -0.0530
     38 H1          4.0348   27.2269   -9.7079 H           1 GYN       0.0753
     39 H2          4.3391   27.4719   -7.4485 H           1 GYN       0.0338
     40 H3          5.0156   25.8551   -7.2644 H           1 GYN       0.0338
     41 H4          2.2616   26.7795   -6.7284 H           1 GYN       0.0553
     42 H5          1.9259   24.5009   -5.7659 H           1 GYN       0.0258
     43 H6          3.4617   25.1877   -5.2143 H           1 GYN       0.0258
     44 H7          3.4536   23.9492   -6.4818 H           1 GYN       0.0258
     45 H8          6.4549   27.7521   -9.2521 H           1 GYN       0.0329
     46 H9          5.8253   28.0571  -10.8904 H           1 GYN       0.0329
     47 H10         7.5317   27.7928  -10.6137 H           1 GYN       0.0329
     48 H11         8.1457   25.2092  -10.5830 H           1 GYN       0.0417
     49 H12         7.1209   23.2598   -9.3886 H           1 GYN       0.0226
     50 H13         6.0739   22.1247  -10.2328 H           1 GYN       0.0226
     51 H14         4.2470   23.6395  -10.2127 H           1 GYN       0.0362
     52 H15         4.9825   23.7604   -8.6229 H           1 GYN       0.0362
     53 H16         6.9551   26.0860  -13.1430 H           1 GYN       0.0252
     54 H17         9.6653   26.9649  -10.8468 H           1 GYN       0.0377
     55 H18        10.8161   27.1955  -12.1302 H           1 GYN       0.0377
     56 H19        10.3298   25.5643  -11.6921 H           1 GYN       0.0377
     57 H20         8.0377   27.4777  -14.5422 H           1 GYN       0.0742
     58 H21         7.9880   29.0322  -13.1185 H           1 GYN       0.2129
     59 H22        11.0921   27.3047  -14.3417 H           1 GYN       0.0312
     60 H23        10.2453   28.4081  -15.3910 H           1 GYN       0.0312
     61 H24        10.8736   26.6265  -16.7453 H           1 GYN       0.0293
     62 H25         9.1303   26.4754  -16.5433 H           1 GYN       0.0293
     63 H26         9.4400   24.6317  -14.9421 H           1 GYN       0.0598
     64 H27        10.9938   24.3314  -17.5565 H           1 GYN       0.0295
     65 H28         9.3887   23.6681  -17.1479 H           1 GYN       0.0295
     66 H29        10.2843   22.0880  -15.6487 H           1 GYN       0.0345
     67 H30        12.2899   20.9733  -16.6009 H           1 GYN       0.0235
     68 H31        12.6202   22.3911  -17.6153 H           1 GYN       0.0235
     69 H32        11.1464   21.4364  -17.8721 H           1 GYN       0.0235
     70 H33        12.9831   23.4388  -15.3404 H           1 GYN       0.0747
     71 H34        13.3696   21.6301  -12.5693 H           1 GYN       0.0376
     72 H35        13.5870   21.4283  -14.3063 H           1 GYN       0.0376
     73 H36        12.2995   20.5495  -13.4866 H           1 GYN       0.0376
     74 H37        10.3618   23.6494  -13.0134 H           1 GYN       0.0245
     75 H38        11.3086   22.0134  -10.9698 H           1 GYN       0.0369
     76 H39        10.3496   21.0109  -12.0634 H           1 GYN       0.0369
     77 H40         9.4554   23.4138  -10.4552 H           1 GYN       0.0520
     78 H41         8.8834   21.7623  -10.3257 H           1 GYN       0.0520
     79 H42         6.6206   21.2071  -14.1077 H           1 GYN       0.0507
     80 H43         7.7725   22.1803  -15.0233 H           1 GYN       0.0507
     81 H44         5.3701   23.1540  -14.7287 H           1 GYN       0.0277
     82 H45         6.7386   24.2248  -14.4552 H           1 GYN       0.0277
     83 H46         5.1031   24.4600  -12.6010 H           1 GYN       0.0210
     84 H47         5.0934   22.7253  -12.3774 H           1 GYN       0.0210
@<TRIPOS>BOND
     1     1     2   2
     2     2     3   1
     3     2     6   1
     4     3     4   1
     5     4     5   1
     6     4     8   1
     7     5     6   1
     8     6     7   1
     9     8     9   2
    10     8    14   1
    11     9    10   1
    12     9    11   1
    13    11    12   1
    14    11    15   1
    15    12    13   1
    16    12    33   1
    17    12    37   1
    18    13    14   1
    19    15    16   2
    20    16    17   1
    21    16    18   1
    22    18    19   1
    23    18    20   1
    24    20    21   1
    25    21    22   1
    26    22    23   1
    27    22    26   1
    28    23    24   1
    29    24    25   1
    30    24    27   1
    31    26    27   1
    32    27    28   1
    33    28    29   1
    34    28    30   2
    35    30    31   1
    36    31    32   1
    37    32    33   1
    38    33    34   2
    39    34    35   1
    40    35    36   1
    41    36    37   1
    42     4    38   1
    43     5    39   1
    44     5    40   1
    45     6    41   1
    46     7    42   1
    47     7    43   1
    48     7    44   1
    49    10    45   1
    50    10    46   1
    51    10    47   1
    52    11    48   1
    53    13    49   1
    54    13    50   1
    55    14    51   1
    56    14    52   1
    57    15    53   1
    58    17    54   1
    59    17    55   1
    60    17    56   1
    61    18    57   1
    62    19    58   1
    63    20    59   1
    64    20    60   1
    65    21    61   1
    66    21    62   1
    67    22    63   1
    68    23    64   1
    69    23    65   1
    70    24    66   1
    71    25    67   1
    72    25    68   1
    73    25    69   1
    74    27    70   1
    75    29    71   1
    76    29    72   1
    77    29    73   1
    78    30    74   1
    79    31    75   1
    80    31    76   1
    81    32    77   1
    82    32    78   1
    83    35    79   1
    84    35    80   1
    85    36    81   1
    86    36    82   1
    87    37    83   1
    88    37    84   1
@<TRIPOS>SUBSTRUCTURE
     1  GYN      2

