@<TRIPOS>MOLECULE
2x00_ligand_054
    84    88
SMALL
GAST_HUCK
****
This file was generated by PARSER (from files_GN.cpp)

@<TRIPOS>ATOM
      1 O6         12.4875   23.5640  -20.6102 O.2         1 GYN      -0.3700
      2 C5         11.4059   24.1859  -20.0928 C.2         1 GYN       0.2385
      3 O1         11.5115   25.2280  -19.2413 O.3         1 GYN      -0.2655
      4 C2         10.2371   25.7820  -18.9104 C.3         1 GYN       0.1059
      5 C3          9.2039   24.8123  -19.5608 C.3         1 GYN       0.0041
      6 C4         10.0244   23.8775  -20.4914 C.3         1 GYN       0.0613
      7 C7          9.6430   22.3759  -20.3890 C.3         1 GYN      -0.0438
      8 C8         10.0116   26.0426  -17.4590 C.2         1 GYN      -0.0559
      9 C13        10.1335   25.1047  -16.4667 C.2         1 GYN      -0.0876
     10 C14        10.8856   23.8648  -16.7443 C.3         1 GYN      -0.0498
     11 C12         9.6387   25.3178  -15.0568 C.3         1 GYN      -0.0250
     12 C27         8.7992   26.6657  -14.8109 C.3         1 GYN       0.0148
     13 C10         9.5140   27.7767  -15.6576 C.3         1 GYN      -0.0494
     14 C9          9.5997   27.4207  -17.1553 C.3         1 GYN      -0.0395
     15 C15         8.9255   24.1005  -14.5823 C.2         1 GYN      -0.1023
     16 C16         9.2915   23.1664  -13.6643 C.2         1 GYN      -0.0548
     17 C19        10.5403   23.2926  -12.9105 C.3         1 GYN      -0.0377
     18 C17         8.5361   21.8918  -13.5696 C.3         1 GYN       0.0804
     19 O20         9.3698   20.8568  -14.0957 O.3         1 GYN      -0.3807
     20 C18         8.0111   21.4228  -12.1744 C.3         1 GYN      -0.0158
     21 C21         6.7983   22.1902  -11.5696 C.3         1 GYN      -0.0223
     22 C43         7.1066   23.6096  -11.0493 C.3         1 GYN       0.0623
     23 C47         5.9580   24.2916  -10.2663 C.3         1 GYN      -0.0197
     24 C48         6.5557   24.5923   -8.8733 C.3         1 GYN      -0.0066
     25 C49         6.0668   23.6012   -7.7847 C.3         1 GYN      -0.0582
     26 O43         8.2315   23.5276  -10.1628 O.3         1 GYN      -0.3622
     27 C37         8.0860   24.4965   -9.1189 C.3         1 GYN       0.0865
     28 C36         8.7508   25.7916   -9.3606 C.2         1 GYN      -0.0553
     29 C38         8.9594   26.6659   -8.2132 C.3         1 GYN      -0.0379
     30 C35         9.1805   26.1406  -10.5937 C.2         1 GYN      -0.1039
     31 C34         9.7692   27.3940  -11.0339 C.3         1 GYN      -0.0315
     32 C33         9.9566   27.4860  -12.5868 C.3         1 GYN       0.0100
     33 C32         8.7650   27.2178  -13.4118 C.2         1 GYN       0.0383
     34 N31         7.7214   27.8500  -12.9812 N.2         1 GYN      -0.2722
     35 C30         6.4681   28.0680  -13.5454 C.3         1 GYN       0.0432
     36 C46         6.3918   27.6894  -15.0453 C.3         1 GYN      -0.0375
     37 C28         7.3000   26.4671  -15.2992 C.3         1 GYN      -0.0530
     38 H1         10.1906   26.7233  -19.4793 H           1 GYN       0.0753
     39 H2          8.4587   25.3835  -20.1281 H           1 GYN       0.0338
     40 H3          8.6682   24.2396  -18.7948 H           1 GYN       0.0338
     41 H4          9.8949   24.2068  -21.5266 H           1 GYN       0.0553
     42 H5         10.2368   21.7903  -21.1025 H           1 GYN       0.0258
     43 H6          8.5825   22.2535  -20.6398 H           1 GYN       0.0258
     44 H7          9.8167   21.9953  -19.3761 H           1 GYN       0.0258
     45 H8         11.9010   24.1152  -17.0703 H           1 GYN       0.0329
     46 H9         10.3814   23.2763  -17.5118 H           1 GYN       0.0329
     47 H10        10.9908   23.2149  -15.8767 H           1 GYN       0.0329
     48 H11        10.5659   25.4158  -14.5007 H           1 GYN       0.0417
     49 H12        10.5440   27.9029  -15.3030 H           1 GYN       0.0226
     50 H13         9.0221   28.7512  -15.5585 H           1 GYN       0.0226
     51 H14         8.6295   27.6057  -17.6270 H           1 GYN       0.0362
     52 H15        10.3144   28.1231  -17.6021 H           1 GYN       0.0362
     53 H16         8.1336   23.8714  -15.1357 H           1 GYN       0.0252
     54 H17        11.3925   23.2754  -13.5873 H           1 GYN       0.0377
     55 H18        10.6923   22.4890  -12.1910 H           1 GYN       0.0377
     56 H19        10.5641   24.2228  -12.3557 H           1 GYN       0.0377
     57 H20         7.6578   21.8950  -14.2216 H           1 GYN       0.0742
     58 H21        10.1162   20.7620  -13.4657 H           1 GYN       0.2129
     59 H22         8.8222   21.3791  -11.4455 H           1 GYN       0.0312
     60 H23         7.6733   20.3907  -12.2949 H           1 GYN       0.0312
     61 H24         6.4188   21.6072  -10.7239 H           1 GYN       0.0293
     62 H25         5.9997   22.2632  -12.3134 H           1 GYN       0.0293
     63 H26         7.3487   24.2224  -11.9187 H           1 GYN       0.0598
     64 H27         5.0598   23.6677  -10.2107 H           1 GYN       0.0295
     65 H28         5.6824   25.2286  -10.7645 H           1 GYN       0.0295
     66 H29         6.2634   25.5999   -8.5605 H           1 GYN       0.0345
     67 H30         6.5120   23.8575   -6.8235 H           1 GYN       0.0235
     68 H31         6.3475   22.5786   -8.0378 H           1 GYN       0.0235
     69 H32         4.9824   23.6544   -7.6846 H           1 GYN       0.0235
     70 H33         8.5827   24.0499   -8.2585 H           1 GYN       0.0747
     71 H34        10.0296   26.7666   -8.0263 H           1 GYN       0.0376
     72 H35         8.5043   26.2778   -7.2981 H           1 GYN       0.0376
     73 H36         8.5236   27.6461   -8.4076 H           1 GYN       0.0376
     74 H37         9.0416   25.4901  -11.3121 H           1 GYN       0.0245
     75 H38        10.7438   27.5125  -10.5549 H           1 GYN       0.0369
     76 H39         9.1323   28.2229  -10.7122 H           1 GYN       0.0369
     77 H40        10.7770   26.8240  -12.8542 H           1 GYN       0.0520
     78 H41        10.2989   28.5008  -12.8116 H           1 GYN       0.0520
     79 H42         6.2152   29.1240  -13.4274 H           1 GYN       0.0507
     80 H43         5.7417   27.4813  -12.9773 H           1 GYN       0.0507
     81 H44         6.6991   28.5353  -15.6664 H           1 GYN       0.0277
     82 H45         5.3595   27.4413  -15.3112 H           1 GYN       0.0277
     83 H46         6.8344   25.6572  -14.7352 H           1 GYN       0.0210
     84 H47         7.2480   26.1901  -16.3533 H           1 GYN       0.0210
@<TRIPOS>BOND
     1     1     2   2
     2     2     3   1
     3     2     6   1
     4     3     4   1
     5     4     5   1
     6     4     8   1
     7     5     6   1
     8     6     7   1
     9     8     9   2
    10     8    14   1
    11     9    10   1
    12     9    11   1
    13    11    12   1
    14    11    15   1
    15    12    13   1
    16    12    33   1
    17    12    37   1
    18    13    14   1
    19    15    16   2
    20    16    17   1
    21    16    18   1
    22    18    19   1
    23    18    20   1
    24    20    21   1
    25    21    22   1
    26    22    23   1
    27    22    26   1
    28    23    24   1
    29    24    25   1
    30    24    27   1
    31    26    27   1
    32    27    28   1
    33    28    29   1
    34    28    30   2
    35    30    31   1
    36    31    32   1
    37    32    33   1
    38    33    34   2
    39    34    35   1
    40    35    36   1
    41    36    37   1
    42     4    38   1
    43     5    39   1
    44     5    40   1
    45     6    41   1
    46     7    42   1
    47     7    43   1
    48     7    44   1
    49    10    45   1
    50    10    46   1
    51    10    47   1
    52    11    48   1
    53    13    49   1
    54    13    50   1
    55    14    51   1
    56    14    52   1
    57    15    53   1
    58    17    54   1
    59    17    55   1
    60    17    56   1
    61    18    57   1
    62    19    58   1
    63    20    59   1
    64    20    60   1
    65    21    61   1
    66    21    62   1
    67    22    63   1
    68    23    64   1
    69    23    65   1
    70    24    66   1
    71    25    67   1
    72    25    68   1
    73    25    69   1
    74    27    70   1
    75    29    71   1
    76    29    72   1
    77    29    73   1
    78    30    74   1
    79    31    75   1
    80    31    76   1
    81    32    77   1
    82    32    78   1
    83    35    79   1
    84    35    80   1
    85    36    81   1
    86    36    82   1
    87    37    83   1
    88    37    84   1
@<TRIPOS>SUBSTRUCTURE
     1  GYN      2

