@<TRIPOS>MOLECULE
2x00_ligand_013
    84    88
SMALL
GAST_HUCK
****
This file was generated by PARSER (from files_GN.cpp)

@<TRIPOS>ATOM
      1 O6          7.6294   26.0364   -5.5823 O.2         1 GYN      -0.3700
      2 C5          6.9619   25.3893   -6.5625 C.2         1 GYN       0.2385
      3 O1          7.5931   24.7890   -7.5870 O.3         1 GYN      -0.2655
      4 C2          6.7060   24.1181   -8.4765 C.3         1 GYN       0.1059
      5 C3          5.2915   24.3477   -7.8556 C.3         1 GYN       0.0041
      6 C4          5.5081   25.2382   -6.6009 C.3         1 GYN       0.0613
      7 C7          4.7886   26.6114   -6.6420 C.3         1 GYN      -0.0438
      8 C8          6.9443   24.5680   -9.8792 C.2         1 GYN      -0.0559
      9 C13         7.4320   23.7474  -10.8616 C.2         1 GYN      -0.0876
     10 C14         7.3220   22.2838  -10.7003 C.3         1 GYN      -0.0498
     11 C12         7.9899   24.2603  -12.1637 C.3         1 GYN      -0.0250
     12 C27         8.1135   25.8578  -12.2915 C.3         1 GYN       0.0148
     13 C10         6.8141   26.4263  -11.6236 C.3         1 GYN      -0.0494
     14 C9          6.7010   25.9990  -10.1454 C.3         1 GYN      -0.0395
     15 C15         9.2707   23.5741  -12.4453 C.2         1 GYN      -0.1023
     16 C16         9.5849   22.6145  -13.3572 C.2         1 GYN      -0.0548
     17 C19         8.6115   22.1427  -14.3473 C.3         1 GYN      -0.0377
     18 C17        10.8675   21.8817  -13.2059 C.3         1 GYN       0.0804
     19 O20        10.5464   20.5504  -12.8026 O.3         1 GYN      -0.3807
     20 C18        11.8339   21.7860  -14.4285 C.3         1 GYN      -0.0158
     21 C21        12.6605   23.0591  -14.7760 C.3         1 GYN      -0.0223
     22 C43        11.8509   24.2170  -15.4165 C.3         1 GYN       0.0623
     23 C47        12.6889   25.4446  -15.8482 C.3         1 GYN      -0.0197
     24 C48        12.3713   25.6316  -17.3498 C.3         1 GYN      -0.0066
     25 C49        13.5282   25.1459  -18.2664 C.3         1 GYN      -0.0582
     26 O43        11.1746   23.7432  -16.5943 O.3         1 GYN      -0.3622
     27 C37        11.0631   24.8120  -17.5496 C.3         1 GYN       0.0865
     28 C36         9.8204   25.6150  -17.4908 C.2         1 GYN      -0.0553
     29 C38         9.5362   26.5287  -18.5966 C.3         1 GYN      -0.0379
     30 C35         8.9589   25.4996  -16.4556 C.2         1 GYN      -0.1039
     31 C34         7.7365   26.2522  -16.2152 C.3         1 GYN      -0.0315
     32 C33         7.1863   26.1024  -14.7570 C.3         1 GYN       0.0100
     33 C32         8.1261   26.4469  -13.6732 C.2         1 GYN       0.0383
     34 N31         8.7663   27.5443  -13.9027 N.2         1 GYN      -0.2722
     35 C30         9.6006   28.3300  -13.1077 C.3         1 GYN       0.0432
     36 C46         9.6040   27.9162  -11.6177 C.3         1 GYN      -0.0375
     37 C28         9.4066   26.3858  -11.5297 C.3         1 GYN      -0.0530
     38 H1          6.9488   23.0635   -8.3213 H           1 GYN       0.0753
     39 H2          4.8699   23.3827   -7.5564 H           1 GYN       0.0338
     40 H3          4.5667   24.7887   -8.5470 H           1 GYN       0.0338
     41 H4          5.1920   24.6940   -5.7081 H           1 GYN       0.0553
     42 H5          4.9698   27.1531   -5.7105 H           1 GYN       0.0258
     43 H6          3.7106   26.4686   -6.7500 H           1 GYN       0.0258
     44 H7          5.1496   27.2166   -7.4775 H           1 GYN       0.0258
     45 H8          6.3143   22.0058  -10.3820 H           1 GYN       0.0329
     46 H9          8.0504   21.9339   -9.9674 H           1 GYN       0.0329
     47 H10         7.5145   21.7304  -11.6142 H           1 GYN       0.0329
     48 H11         7.2506   23.9323  -12.8882 H           1 GYN       0.0417
     49 H12         5.9222   26.0483  -12.1388 H           1 GYN       0.0226
     50 H13         6.7553   27.5192  -11.6638 H           1 GYN       0.0226
     51 H14         7.3802   26.6001   -9.5323 H           1 GYN       0.0362
     52 H15         5.6879   26.2829   -9.8518 H           1 GYN       0.0362
     53 H16         9.9634   23.7550  -11.7592 H           1 GYN       0.0252
     54 H17         7.7306   21.7248  -13.8659 H           1 GYN       0.0377
     55 H18         9.0151   21.3605  -14.9879 H           1 GYN       0.0377
     56 H19         8.2842   22.9517  -14.9905 H           1 GYN       0.0377
     57 H20        11.4765   22.2804  -12.3866 H           1 GYN       0.0742
     58 H21        10.1288   20.6398  -11.9197 H           1 GYN       0.2129
     59 H22        11.3034   21.4430  -15.3173 H           1 GYN       0.0312
     60 H23        12.5710   21.0085  -14.1979 H           1 GYN       0.0312
     61 H24        13.4473   22.7688  -15.4796 H           1 GYN       0.0293
     62 H25        13.1545   23.4232  -13.8708 H           1 GYN       0.0293
     63 H26        11.1161   24.5479  -14.6808 H           1 GYN       0.0598
     64 H27        13.7575   25.3041  -15.6627 H           1 GYN       0.0295
     65 H28        12.3682   26.3280  -15.2858 H           1 GYN       0.0295
     66 H29        12.2150   26.6947  -17.5606 H           1 GYN       0.0345
     67 H30        13.2577   25.2851  -19.3147 H           1 GYN       0.0235
     68 H31        13.7422   24.0887  -18.0963 H           1 GYN       0.0235
     69 H32        14.4335   25.7235  -18.0693 H           1 GYN       0.0235
     70 H33        11.0655   24.3186  -18.5262 H           1 GYN       0.0747
     71 H34         8.5766   26.2762  -19.0529 H           1 GYN       0.0376
     72 H35        10.2952   26.4803  -19.3810 H           1 GYN       0.0376
     73 H36         9.5007   27.5585  -18.2368 H           1 GYN       0.0376
     74 H37         9.1844   24.8525  -15.7541 H           1 GYN       0.0245
     75 H38         6.9741   25.9112  -16.9209 H           1 GYN       0.0369
     76 H39         7.9137   27.3130  -16.4061 H           1 GYN       0.0369
     77 H40         6.8104   25.0877  -14.6611 H           1 GYN       0.0520
     78 H41         6.3194   26.7611  -14.6616 H           1 GYN       0.0520
     79 H42         9.2856   29.3714  -13.1901 H           1 GYN       0.0507
     80 H43        10.6113   28.2498  -13.5133 H           1 GYN       0.0507
     81 H44         8.8090   28.4302  -11.0741 H           1 GYN       0.0277
     82 H45        10.5527   28.2002  -11.1550 H           1 GYN       0.0277
     83 H46        10.2938   25.9609  -11.9991 H           1 GYN       0.0210
     84 H47         9.4277   26.0734  -10.4837 H           1 GYN       0.0210
@<TRIPOS>BOND
     1     1     2   2
     2     2     3   1
     3     2     6   1
     4     3     4   1
     5     4     5   1
     6     4     8   1
     7     5     6   1
     8     6     7   1
     9     8     9   2
    10     8    14   1
    11     9    10   1
    12     9    11   1
    13    11    12   1
    14    11    15   1
    15    12    13   1
    16    12    33   1
    17    12    37   1
    18    13    14   1
    19    15    16   2
    20    16    17   1
    21    16    18   1
    22    18    19   1
    23    18    20   1
    24    20    21   1
    25    21    22   1
    26    22    23   1
    27    22    26   1
    28    23    24   1
    29    24    25   1
    30    24    27   1
    31    26    27   1
    32    27    28   1
    33    28    29   1
    34    28    30   2
    35    30    31   1
    36    31    32   1
    37    32    33   1
    38    33    34   2
    39    34    35   1
    40    35    36   1
    41    36    37   1
    42     4    38   1
    43     5    39   1
    44     5    40   1
    45     6    41   1
    46     7    42   1
    47     7    43   1
    48     7    44   1
    49    10    45   1
    50    10    46   1
    51    10    47   1
    52    11    48   1
    53    13    49   1
    54    13    50   1
    55    14    51   1
    56    14    52   1
    57    15    53   1
    58    17    54   1
    59    17    55   1
    60    17    56   1
    61    18    57   1
    62    19    58   1
    63    20    59   1
    64    20    60   1
    65    21    61   1
    66    21    62   1
    67    22    63   1
    68    23    64   1
    69    23    65   1
    70    24    66   1
    71    25    67   1
    72    25    68   1
    73    25    69   1
    74    27    70   1
    75    29    71   1
    76    29    72   1
    77    29    73   1
    78    30    74   1
    79    31    75   1
    80    31    76   1
    81    32    77   1
    82    32    78   1
    83    35    79   1
    84    35    80   1
    85    36    81   1
    86    36    82   1
    87    37    83   1
    88    37    84   1
@<TRIPOS>SUBSTRUCTURE
     1  GYN      2

