@<TRIPOS>MOLECULE
2x00_ligand_091
    84    88
SMALL
GAST_HUCK
****
This file was generated by PARSER (from files_GN.cpp)

@<TRIPOS>ATOM
      1 O6         -4.5192   26.0620   -7.1863 O.2         1 GYN      -0.3700
      2 C5         -3.2954   25.8191   -6.6646 C.2         1 GYN       0.2385
      3 O1         -2.3486   26.7705   -6.5565 O.3         1 GYN      -0.2655
      4 C2         -1.1621   26.3474   -5.8909 C.3         1 GYN       0.1059
      5 C3         -1.4571   24.8428   -5.5746 C.3         1 GYN       0.0041
      6 C4         -2.9151   24.5644   -6.0211 C.3         1 GYN       0.0613
      7 C7         -3.0694   23.3496   -6.9664 C.3         1 GYN      -0.0438
      8 C8          0.0208   26.7802   -6.6849 C.2         1 GYN      -0.0559
      9 C13         0.2588   28.0975   -6.9715 C.2         1 GYN      -0.0876
     10 C14        -0.4149   29.1438   -6.1721 C.3         1 GYN      -0.0498
     11 C12         1.2789   28.5338   -7.9874 C.3         1 GYN      -0.0250
     12 C27         1.8695   27.3622   -8.9048 C.3         1 GYN       0.0148
     13 C10         2.1978   26.1931   -7.9119 C.3         1 GYN      -0.0494
     14 C9          0.9438   25.7343   -7.1436 C.3         1 GYN      -0.0395
     15 C15         0.7467   29.6531   -8.7928 C.2         1 GYN      -0.1023
     16 C16         1.1149   30.9621   -8.8189 C.2         1 GYN      -0.0548
     17 C19         2.1508   31.4668   -7.9161 C.3         1 GYN      -0.0377
     18 C17         0.3007   31.9360   -9.5854 C.3         1 GYN       0.0804
     19 O20        -0.4985   32.6505   -8.6373 O.3         1 GYN      -0.3807
     20 C18         1.0210   32.9729  -10.5109 C.3         1 GYN      -0.0158
     21 C21         1.5438   32.4745  -11.8888 C.3         1 GYN      -0.0223
     22 C43         2.8426   31.6239  -11.8678 C.3         1 GYN       0.0623
     23 C47         3.3980   31.2933  -13.2777 C.3         1 GYN      -0.0197
     24 C48         4.8313   31.8615  -13.2785 C.3         1 GYN      -0.0066
     25 C49         4.9298   33.2413  -13.9838 C.3         1 GYN      -0.0582
     26 O43         3.9046   32.3125  -11.1791 O.3         1 GYN      -0.3622
     27 C37         5.1708   31.9353  -11.7616 C.3         1 GYN       0.0865
     28 C36         5.8105   30.7111  -11.2212 C.2         1 GYN      -0.0553
     29 C38         7.1229   30.3235  -11.7417 C.3         1 GYN      -0.0379
     30 C35         5.2109   29.9834  -10.2549 C.2         1 GYN      -0.1039
     31 C34         5.5745   28.6525   -9.7791 C.3         1 GYN      -0.0315
     32 C33         4.4333   27.9529   -8.9564 C.3         1 GYN       0.0100
     33 C32         3.1334   27.7398   -9.6270 C.2         1 GYN       0.0383
     34 N31         3.1907   27.7662  -10.9106 N.2         1 GYN      -0.2722
     35 C30         2.2229   27.5685  -11.8847 C.3         1 GYN       0.0432
     36 C46         0.7954   27.5333  -11.3115 C.3         1 GYN      -0.0375
     37 C28         0.7982   26.8120   -9.9475 C.3         1 GYN      -0.0530
     38 H1         -1.1327   26.8558   -4.9247 H           1 GYN       0.0753
     39 H2         -1.3471   24.6666   -4.5005 H           1 GYN       0.0338
     40 H3         -0.7985   24.1354   -6.0684 H           1 GYN       0.0338
     41 H4         -3.5419   24.4112   -5.1439 H           1 GYN       0.0553
     42 H5         -4.1053   23.2629   -7.3120 H           1 GYN       0.0258
     43 H6         -2.8119   22.4423   -6.4176 H           1 GYN       0.0258
     44 H7         -2.4095   23.4394   -7.8320 H           1 GYN       0.0258
     45 H8         -0.0489   30.1475   -6.3625 H           1 GYN       0.0329
     46 H9         -0.2558   28.9723   -5.1076 H           1 GYN       0.0329
     47 H10        -1.4833   29.1545   -6.3833 H           1 GYN       0.0329
     48 H11         2.1027   28.8936   -7.3784 H           1 GYN       0.0417
     49 H12         2.9373   26.5104   -7.1694 H           1 GYN       0.0226
     50 H13         2.6202   25.3326   -8.4359 H           1 GYN       0.0226
     51 H14         0.3961   25.0444   -7.7886 H           1 GYN       0.0362
     52 H15         1.3012   25.1808   -6.2663 H           1 GYN       0.0362
     53 H16        -0.0960   29.4313   -9.2705 H           1 GYN       0.0252
     54 H17         3.0971   30.9792   -8.1229 H           1 GYN       0.0377
     55 H18         1.8862   31.2738   -6.8770 H           1 GYN       0.0377
     56 H19         2.3083   32.5408   -7.9965 H           1 GYN       0.0377
     57 H20        -0.4243   31.4233  -10.2240 H           1 GYN       0.0742
     58 H21         0.1212   33.2026   -8.1164 H           1 GYN       0.2129
     59 H22         1.8311   33.4770   -9.9828 H           1 GYN       0.0312
     60 H23         0.2852   33.7500  -10.7365 H           1 GYN       0.0312
     61 H24         1.7358   33.3583  -12.5041 H           1 GYN       0.0293
     62 H25         0.7531   31.9015  -12.3821 H           1 GYN       0.0293
     63 H26         2.6167   30.6935  -11.3435 H           1 GYN       0.0598
     64 H27         2.7887   31.7066  -14.0858 H           1 GYN       0.0295
     65 H28         3.4436   30.2112  -13.4178 H           1 GYN       0.0295
     66 H29         5.4945   31.1771  -13.8176 H           1 GYN       0.0345
     67 H30         5.9599   33.6040  -13.9523 H           1 GYN       0.0235
     68 H31         4.2843   33.9763  -13.4998 H           1 GYN       0.0235
     69 H32         4.6344   33.1505  -15.0317 H           1 GYN       0.0235
     70 H33         5.8601   32.7601  -11.5640 H           1 GYN       0.0747
     71 H34         7.8380   30.2214  -10.9245 H           1 GYN       0.0376
     72 H35         7.5287   31.0655  -12.4333 H           1 GYN       0.0376
     73 H36         7.0539   29.3741  -12.2749 H           1 GYN       0.0376
     74 H37         4.3953   30.3582   -9.8508 H           1 GYN       0.0245
     75 H38         6.4693   28.7331   -9.1568 H           1 GYN       0.0369
     76 H39         5.8182   28.0130  -10.6298 H           1 GYN       0.0369
     77 H40         4.2762   28.5345   -8.0502 H           1 GYN       0.0520
     78 H41         4.8159   26.9787   -8.6518 H           1 GYN       0.0520
     79 H42         2.4313   26.6320  -12.3866 H           1 GYN       0.0507
     80 H43         2.3076   28.3605  -12.6235 H           1 GYN       0.0507
     81 H44         0.1255   27.0233  -12.0131 H           1 GYN       0.0277
     82 H45         0.4458   28.5552  -11.2099 H           1 GYN       0.0277
     83 H46        -0.2134   26.8539   -9.5396 H           1 GYN       0.0210
     84 H47         1.0043   25.7590  -10.1723 H           1 GYN       0.0210
@<TRIPOS>BOND
     1     1     2   2
     2     2     3   1
     3     2     6   1
     4     3     4   1
     5     4     5   1
     6     4     8   1
     7     5     6   1
     8     6     7   1
     9     8     9   2
    10     8    14   1
    11     9    10   1
    12     9    11   1
    13    11    12   1
    14    11    15   1
    15    12    13   1
    16    12    33   1
    17    12    37   1
    18    13    14   1
    19    15    16   2
    20    16    17   1
    21    16    18   1
    22    18    19   1
    23    18    20   1
    24    20    21   1
    25    21    22   1
    26    22    23   1
    27    22    26   1
    28    23    24   1
    29    24    25   1
    30    24    27   1
    31    26    27   1
    32    27    28   1
    33    28    29   1
    34    28    30   2
    35    30    31   1
    36    31    32   1
    37    32    33   1
    38    33    34   2
    39    34    35   1
    40    35    36   1
    41    36    37   1
    42     4    38   1
    43     5    39   1
    44     5    40   1
    45     6    41   1
    46     7    42   1
    47     7    43   1
    48     7    44   1
    49    10    45   1
    50    10    46   1
    51    10    47   1
    52    11    48   1
    53    13    49   1
    54    13    50   1
    55    14    51   1
    56    14    52   1
    57    15    53   1
    58    17    54   1
    59    17    55   1
    60    17    56   1
    61    18    57   1
    62    19    58   1
    63    20    59   1
    64    20    60   1
    65    21    61   1
    66    21    62   1
    67    22    63   1
    68    23    64   1
    69    23    65   1
    70    24    66   1
    71    25    67   1
    72    25    68   1
    73    25    69   1
    74    27    70   1
    75    29    71   1
    76    29    72   1
    77    29    73   1
    78    30    74   1
    79    31    75   1
    80    31    76   1
    81    32    77   1
    82    32    78   1
    83    35    79   1
    84    35    80   1
    85    36    81   1
    86    36    82   1
    87    37    83   1
    88    37    84   1
@<TRIPOS>SUBSTRUCTURE
     1  GYN      2

