@<TRIPOS>MOLECULE
2x00_ligand_052
    84    88
SMALL
GAST_HUCK
****
This file was generated by PARSER (from files_GN.cpp)

@<TRIPOS>ATOM
      1 O6          6.9919   22.1418  -12.8053 O.2         1 GYN      -0.3700
      2 C5          7.1755   22.8297  -11.6607 C.2         1 GYN       0.2385
      3 O1          6.7345   22.3861  -10.4628 O.3         1 GYN      -0.2655
      4 C2          7.1027   23.2400   -9.3799 C.3         1 GYN       0.1059
      5 C3          7.8033   24.4495  -10.0606 C.3         1 GYN       0.0041
      6 C4          7.9801   24.0586  -11.5459 C.3         1 GYN       0.0613
      7 C7          7.5555   25.1621  -12.5479 C.3         1 GYN      -0.0438
      8 C8          6.0118   23.5801   -8.4346 C.2         1 GYN      -0.0559
      9 C13         4.8395   24.1775   -8.7984 C.2         1 GYN      -0.0876
     10 C14         4.3008   23.8873  -10.1370 C.3         1 GYN      -0.0498
     11 C12         3.9776   24.9494   -7.8495 C.3         1 GYN      -0.0250
     12 C27         4.5539   25.0598   -6.3549 C.3         1 GYN       0.0148
     13 C10         5.1519   23.6428   -6.0360 C.3         1 GYN      -0.0494
     14 C9          6.2682   23.2562   -7.0255 C.3         1 GYN      -0.0395
     15 C15         3.6098   26.2377   -8.4869 C.2         1 GYN      -0.1023
     16 C16         2.4292   26.6235   -9.0424 C.2         1 GYN      -0.0548
     17 C19         1.2027   25.8334   -8.8542 C.3         1 GYN      -0.0377
     18 C17         2.4016   27.7237  -10.0388 C.3         1 GYN       0.0804
     19 O20         2.1486   27.1118  -11.3063 O.3         1 GYN      -0.3807
     20 C18         1.3705   28.8887   -9.8588 C.3         1 GYN      -0.0158
     21 C21         1.7168   29.9957   -8.8317 C.3         1 GYN      -0.0223
     22 C43         1.6500   29.5460   -7.3532 C.3         1 GYN       0.0623
     23 C47         1.7460   30.7094   -6.3537 C.3         1 GYN      -0.0197
     24 C48         1.2004   30.0577   -5.0743 C.3         1 GYN      -0.0066
     25 C49         0.6759   31.0917   -4.0482 C.3         1 GYN      -0.0582
     26 O43         0.4006   28.9098   -7.0389 O.3         1 GYN      -0.3622
     27 C37         0.1287   29.0833   -5.6346 C.3         1 GYN       0.0865
     28 C36         0.0700   27.8056   -4.9109 C.2         1 GYN      -0.0553
     29 C38        -0.9328   27.6078   -3.8664 C.3         1 GYN      -0.0379
     30 C35         0.9861   26.8472   -5.1801 C.2         1 GYN      -0.1039
     31 C34         1.1218   25.5534   -4.5250 C.3         1 GYN      -0.0315
     32 C33         2.2768   24.6602   -5.0783 C.3         1 GYN       0.0100
     33 C32         3.5800   25.3212   -5.2468 C.2         1 GYN       0.0383
     34 N31         3.9431   25.9740   -4.1892 N.2         1 GYN      -0.2722
     35 C30         5.1308   26.6287   -3.8704 C.3         1 GYN       0.0432
     36 C46         6.2774   26.3624   -4.8758 C.3         1 GYN      -0.0375
     37 C28         5.6721   26.1818   -6.2894 C.3         1 GYN      -0.0530
     38 H1          7.8862   22.6812   -8.8717 H           1 GYN       0.0753
     39 H2          8.7654   24.6510   -9.5961 H           1 GYN       0.0338
     40 H3          7.1953   25.3451   -9.9678 H           1 GYN       0.0338
     41 H4          9.0230   23.7921  -11.7404 H           1 GYN       0.0553
     42 H5          7.6914   24.8254  -13.5720 H           1 GYN       0.0258
     43 H6          8.1653   26.0484  -12.3966 H           1 GYN       0.0258
     44 H7          6.5147   25.4450  -12.4170 H           1 GYN       0.0258
     45 H8          4.2459   22.8122  -10.3005 H           1 GYN       0.0329
     46 H9          4.9151   24.3411  -10.9099 H           1 GYN       0.0329
     47 H10         3.2887   24.2385  -10.2773 H           1 GYN       0.0329
     48 H11         3.0912   24.3322   -7.7900 H           1 GYN       0.0417
     49 H12         4.3645   22.8837   -6.1075 H           1 GYN       0.0226
     50 H13         5.5433   23.5777   -5.0157 H           1 GYN       0.0226
     51 H14         7.1943   23.7435   -6.7078 H           1 GYN       0.0362
     52 H15         6.4325   22.1797   -6.9381 H           1 GYN       0.0362
     53 H16         4.3860   26.8297   -8.6753 H           1 GYN       0.0252
     54 H17         1.3254   24.8156   -9.2220 H           1 GYN       0.0377
     55 H18         0.3435   26.2453   -9.3823 H           1 GYN       0.0377
     56 H19         0.9413   25.7896   -7.8012 H           1 GYN       0.0377
     57 H20         3.3824   28.1968  -10.1442 H           1 GYN       0.0742
     58 H21         2.1929   27.8340  -11.9711 H           1 GYN       0.2129
     59 H22         0.3749   28.4994   -9.6459 H           1 GYN       0.0312
     60 H23         1.2886   29.4091  -10.8173 H           1 GYN       0.0312
     61 H24         1.0025   30.8118   -8.9761 H           1 GYN       0.0293
     62 H25         2.7136   30.3920   -9.0413 H           1 GYN       0.0293
     63 H26         2.4730   28.8511   -7.1698 H           1 GYN       0.0598
     64 H27         1.1130   31.5473   -6.6634 H           1 GYN       0.0295
     65 H28         2.7709   31.0583   -6.2283 H           1 GYN       0.0295
     66 H29         2.0210   29.5037   -4.6017 H           1 GYN       0.0345
     67 H30         0.3333   30.5789   -3.1458 H           1 GYN       0.0235
     68 H31        -0.1528   31.6719   -4.4609 H           1 GYN       0.0235
     69 H32         1.4816   31.7785   -3.7803 H           1 GYN       0.0235
     70 H33        -0.8486   29.5733   -5.6108 H           1 GYN       0.0747
     71 H34        -1.5462   26.7376   -4.1031 H           1 GYN       0.0376
     72 H35        -1.5985   28.4670   -3.7518 H           1 GYN       0.0376
     73 H36        -0.4459   27.4435   -2.9028 H           1 GYN       0.0376
     74 H37         1.6559   27.0496   -5.8792 H           1 GYN       0.0245
     75 H38         0.1826   25.0006   -4.6283 H           1 GYN       0.0369
     76 H39         1.2927   25.7205   -3.4573 H           1 GYN       0.0369
     77 H40         1.9229   24.2169   -6.0027 H           1 GYN       0.0520
     78 H41         2.4130   23.8269   -4.3840 H           1 GYN       0.0520
     79 H42         5.4486   26.3161   -2.8732 H           1 GYN       0.0507
     80 H43         4.9176   27.6987   -3.8384 H           1 GYN       0.0507
     81 H44         6.8335   25.4698   -4.5892 H           1 GYN       0.0277
     82 H45         6.9803   27.1977   -4.8675 H           1 GYN       0.0277
     83 H46         5.2293   27.1451   -6.5524 H           1 GYN       0.0210
     84 H47         6.4761   26.0019   -7.0047 H           1 GYN       0.0210
@<TRIPOS>BOND
     1     1     2   2
     2     2     3   1
     3     2     6   1
     4     3     4   1
     5     4     5   1
     6     4     8   1
     7     5     6   1
     8     6     7   1
     9     8     9   2
    10     8    14   1
    11     9    10   1
    12     9    11   1
    13    11    12   1
    14    11    15   1
    15    12    13   1
    16    12    33   1
    17    12    37   1
    18    13    14   1
    19    15    16   2
    20    16    17   1
    21    16    18   1
    22    18    19   1
    23    18    20   1
    24    20    21   1
    25    21    22   1
    26    22    23   1
    27    22    26   1
    28    23    24   1
    29    24    25   1
    30    24    27   1
    31    26    27   1
    32    27    28   1
    33    28    29   1
    34    28    30   2
    35    30    31   1
    36    31    32   1
    37    32    33   1
    38    33    34   2
    39    34    35   1
    40    35    36   1
    41    36    37   1
    42     4    38   1
    43     5    39   1
    44     5    40   1
    45     6    41   1
    46     7    42   1
    47     7    43   1
    48     7    44   1
    49    10    45   1
    50    10    46   1
    51    10    47   1
    52    11    48   1
    53    13    49   1
    54    13    50   1
    55    14    51   1
    56    14    52   1
    57    15    53   1
    58    17    54   1
    59    17    55   1
    60    17    56   1
    61    18    57   1
    62    19    58   1
    63    20    59   1
    64    20    60   1
    65    21    61   1
    66    21    62   1
    67    22    63   1
    68    23    64   1
    69    23    65   1
    70    24    66   1
    71    25    67   1
    72    25    68   1
    73    25    69   1
    74    27    70   1
    75    29    71   1
    76    29    72   1
    77    29    73   1
    78    30    74   1
    79    31    75   1
    80    31    76   1
    81    32    77   1
    82    32    78   1
    83    35    79   1
    84    35    80   1
    85    36    81   1
    86    36    82   1
    87    37    83   1
    88    37    84   1
@<TRIPOS>SUBSTRUCTURE
     1  GYN      2

