@<TRIPOS>MOLECULE
2x00_ligand_059
    84    88
SMALL
GAST_HUCK
****
This file was generated by PARSER (from files_GN.cpp)

@<TRIPOS>ATOM
      1 O6          3.5991   27.6283    2.0445 O.2         1 GYN      -0.3700
      2 C5          2.4837   27.8693    1.3308 C.2         1 GYN       0.2385
      3 O1          2.0346   29.1122    1.0539 O.3         1 GYN      -0.2655
      4 C2          0.8193   29.1344    0.2966 C.3         1 GYN       0.1059
      5 C3          0.5359   27.6182    0.0658 C.3         1 GYN       0.0041
      6 C4          1.6317   26.8125    0.8015 C.3         1 GYN       0.0613
      7 C7          1.1135   25.8779    1.9228 C.3         1 GYN      -0.0438
      8 C8         -0.3078   29.8938    0.9113 C.2         1 GYN      -0.0559
      9 C13        -1.2729   30.5306    0.1813 C.2         1 GYN      -0.0876
     10 C14        -1.3823   30.2500   -1.2688 C.3         1 GYN      -0.0498
     11 C12        -2.3419   31.3745    0.8257 C.3         1 GYN      -0.0250
     12 C27        -2.0529   31.8157    2.3372 C.3         1 GYN       0.0148
     13 C10        -1.5579   30.5125    3.0526 C.3         1 GYN      -0.0494
     14 C9         -0.3115   29.9016    2.3825 C.3         1 GYN      -0.0395
     15 C15        -2.7265   32.5203   -0.0306 C.2         1 GYN      -0.1023
     16 C16        -3.8492   32.7067   -0.7741 C.2         1 GYN      -0.0548
     17 C19        -4.9899   31.7912   -0.6952 C.3         1 GYN      -0.0377
     18 C17        -3.8763   33.7599   -1.8167 C.3         1 GYN       0.0804
     19 O20        -4.0313   33.1372   -3.0964 O.3         1 GYN      -0.3807
     20 C18        -4.9419   34.8851   -1.6427 C.3         1 GYN      -0.0158
     21 C21        -4.5538   36.0335   -0.6689 C.3         1 GYN      -0.0223
     22 C43        -4.7530   35.7285    0.8408 C.3         1 GYN       0.0623
     23 C47        -4.2276   36.8458    1.7698 C.3         1 GYN      -0.0197
     24 C48        -5.3668   37.0711    2.7883 C.3         1 GYN      -0.0066
     25 C49        -6.0509   38.4568    2.6330 C.3         1 GYN      -0.0582
     26 O43        -6.1496   35.5940    1.1356 O.3         1 GYN      -0.3622
     27 C37        -6.3543   35.8895    2.5291 C.3         1 GYN       0.0865
     28 C36        -6.2272   34.7473    3.4643 C.2         1 GYN      -0.0553
     29 C38        -6.4259   35.0075    4.8916 C.3         1 GYN      -0.0379
     30 C35        -6.0379   33.4888    3.0084 C.2         1 GYN      -0.1039
     31 C34        -5.7527   32.2887    3.7865 C.3         1 GYN      -0.0315
     32 C33        -4.4825   31.5283    3.2951 C.3         1 GYN       0.0100
     33 C32        -3.2335   32.2942    3.1353 C.2         1 GYN       0.0383
     34 N31        -3.0883   33.2127    4.0337 N.2         1 GYN      -0.2722
     35 C30        -1.9943   33.9900    4.3990 C.3         1 GYN       0.0432
     36 C46        -0.6608   33.5041    3.7844 C.3         1 GYN      -0.0375
     37 C28        -0.9346   32.9445    2.3704 C.3         1 GYN      -0.0530
     38 H1          1.0972   29.6186   -0.6439 H           1 GYN       0.0753
     39 H2          0.5677   27.4022   -1.0065 H           1 GYN       0.0338
     40 H3         -0.4533   27.3332    0.4358 H           1 GYN       0.0338
     41 H4          2.2088   26.2208    0.0808 H           1 GYN       0.0553
     42 H5          1.9468   25.3431    2.3856 H           1 GYN       0.0258
     43 H6          0.4215   25.1383    1.5119 H           1 GYN       0.0258
     44 H7          0.5948   26.4472    2.7005 H           1 GYN       0.0258
     45 H8         -2.2087   30.7545   -1.7644 H           1 GYN       0.0329
     46 H9         -1.5596   29.1937   -1.4448 H           1 GYN       0.0329
     47 H10        -0.4736   30.5597   -1.7889 H           1 GYN       0.0329
     48 H11        -3.1789   30.6858    0.8577 H           1 GYN       0.0417
     49 H12        -2.3414   29.7488    3.0169 H           1 GYN       0.0226
     50 H13        -1.3392   30.6883    4.1100 H           1 GYN       0.0226
     51 H14         0.5740   30.4375    2.7361 H           1 GYN       0.0362
     52 H15        -0.2303   28.8701    2.7436 H           1 GYN       0.0362
     53 H16        -1.9902   33.1602   -0.1964 H           1 GYN       0.0252
     54 H17        -4.6849   30.7804   -0.9704 H           1 GYN       0.0377
     55 H18        -5.8070   32.0698   -1.3611 H           1 GYN       0.0377
     56 H19        -5.3971   31.7815    0.3108 H           1 GYN       0.0377
     57 H20        -2.9056   34.2608   -1.8996 H           1 GYN       0.0742
     58 H21        -4.9899   32.9809   -3.2119 H           1 GYN       0.2129
     59 H22        -5.9076   34.4683   -1.3544 H           1 GYN       0.0312
     60 H23        -5.0828   35.3489   -2.6234 H           1 GYN       0.0312
     61 H24        -5.1671   36.9084   -0.9125 H           1 GYN       0.0293
     62 H25        -3.5098   36.3176   -0.8449 H           1 GYN       0.0293
     63 H26        -4.2398   34.7961    1.0866 H           1 GYN       0.0598
     64 H27        -3.9917   37.7614    1.2198 H           1 GYN       0.0295
     65 H28        -3.3161   36.5147    2.2724 H           1 GYN       0.0295
     66 H29        -4.9428   37.0352    3.8007 H           1 GYN       0.0345
     67 H30        -6.8452   38.5680    3.3722 H           1 GYN       0.0235
     68 H31        -6.4818   38.5646    1.6353 H           1 GYN       0.0235
     69 H32        -5.3241   39.2565    2.7899 H           1 GYN       0.0235
     70 H33        -7.3878   36.2318    2.6171 H           1 GYN       0.0747
     71 H34        -7.2113   34.3605    5.2900 H           1 GYN       0.0376
     72 H35        -6.7316   36.0361    5.0930 H           1 GYN       0.0376
     73 H36        -5.4982   34.8237    5.4383 H           1 GYN       0.0376
     74 H37        -6.0913   33.3356    2.0296 H           1 GYN       0.0245
     75 H38        -6.6139   31.6191    3.6992 H           1 GYN       0.0369
     76 H39        -5.6278   32.5008    4.8497 H           1 GYN       0.0369
     77 H40        -4.7464   31.0331    2.3682 H           1 GYN       0.0520
     78 H41        -4.2909   30.7343    4.0208 H           1 GYN       0.0520
     79 H42        -1.9115   33.9793    5.4883 H           1 GYN       0.0507
     80 H43        -2.1961   35.0174    4.0878 H           1 GYN       0.0507
     81 H44        -0.2145   32.7318    4.4137 H           1 GYN       0.0277
     82 H45         0.0463   34.3358    3.7277 H           1 GYN       0.0277
     83 H46        -1.2483   33.8081    1.7815 H           1 GYN       0.0210
     84 H47         0.0022   32.5950    1.9359 H           1 GYN       0.0210
@<TRIPOS>BOND
     1     1     2   2
     2     2     3   1
     3     2     6   1
     4     3     4   1
     5     4     5   1
     6     4     8   1
     7     5     6   1
     8     6     7   1
     9     8     9   2
    10     8    14   1
    11     9    10   1
    12     9    11   1
    13    11    12   1
    14    11    15   1
    15    12    13   1
    16    12    33   1
    17    12    37   1
    18    13    14   1
    19    15    16   2
    20    16    17   1
    21    16    18   1
    22    18    19   1
    23    18    20   1
    24    20    21   1
    25    21    22   1
    26    22    23   1
    27    22    26   1
    28    23    24   1
    29    24    25   1
    30    24    27   1
    31    26    27   1
    32    27    28   1
    33    28    29   1
    34    28    30   2
    35    30    31   1
    36    31    32   1
    37    32    33   1
    38    33    34   2
    39    34    35   1
    40    35    36   1
    41    36    37   1
    42     4    38   1
    43     5    39   1
    44     5    40   1
    45     6    41   1
    46     7    42   1
    47     7    43   1
    48     7    44   1
    49    10    45   1
    50    10    46   1
    51    10    47   1
    52    11    48   1
    53    13    49   1
    54    13    50   1
    55    14    51   1
    56    14    52   1
    57    15    53   1
    58    17    54   1
    59    17    55   1
    60    17    56   1
    61    18    57   1
    62    19    58   1
    63    20    59   1
    64    20    60   1
    65    21    61   1
    66    21    62   1
    67    22    63   1
    68    23    64   1
    69    23    65   1
    70    24    66   1
    71    25    67   1
    72    25    68   1
    73    25    69   1
    74    27    70   1
    75    29    71   1
    76    29    72   1
    77    29    73   1
    78    30    74   1
    79    31    75   1
    80    31    76   1
    81    32    77   1
    82    32    78   1
    83    35    79   1
    84    35    80   1
    85    36    81   1
    86    36    82   1
    87    37    83   1
    88    37    84   1
@<TRIPOS>SUBSTRUCTURE
     1  GYN      2

