@<TRIPOS>MOLECULE
2x0y_ligand_010
    32    33
SMALL
GAST_HUCK
****
This file was generated by PARSER (from files_GN.cpp)

@<TRIPOS>ATOM
      1 CAB        38.2246   45.6526   22.9739 C.3         1 X0T       0.0446
      2 N3         36.8380   45.7207   22.5533 N.am        1 X0T      -0.2025
      3 C2         35.9514   44.7109   22.6758 C.2         1 X0T       0.3177
      4 O2         36.3206   43.6720   23.2163 O.2         1 X0T      -0.3873
      5 N1         34.6738   44.8150   22.2251 N.am        1 X0T      -0.1740
      6 CAA        33.7134   43.7314   22.4021 C.3         1 X0T       0.0477
      7 C6         34.2558   45.9487   21.6076 C.2         1 X0T       0.2297
      8 O6         33.1206   46.0618   21.1624 O.2         1 X0T      -0.4007
      9 C5         35.1071   47.0399   21.4730 C.2         1 X0T       0.1627
     10 C4         36.3967   46.8882   21.9786 C.2         1 X0T       0.1377
     11 N9         37.0472   48.0477   21.8288 N.2         1 X0T      -0.2858
     12 C8         36.1981   48.8913   21.2370 C.2         1 X0T       0.0978
     13 N7         35.0128   48.3003   20.9810 N.pl3       1 X0T      -0.2487
     14 CAI        33.9116   49.0104   20.3804 C.3         1 X0T       0.0817
     15 CAO        34.1931   49.6574   18.9880 C.3         1 X0T       0.1052
     16 OAF        35.5718   49.9980   18.8148 O.3         1 X0T      -0.3868
     17 CAH        33.3375   50.9364   18.7588 C.3         1 X0T       0.0728
     18 OAE        33.0764   51.1751   17.3753 O.3         1 X0T      -0.3924
     19 H1         38.5032   44.6973   23.4229 H           1 X0T       0.0548
     20 H2         38.4274   46.4319   23.7115 H           1 X0T       0.0548
     21 H3         38.8823   45.8108   22.1153 H           1 X0T       0.0548
     22 H4         34.1003   42.8646   22.9400 H           1 X0T       0.0539
     23 H5         33.3692   43.3785   21.4265 H           1 X0T       0.0539
     24 H6         32.8522   44.0928   22.9697 H           1 X0T       0.0539
     25 H7         36.4240   49.8607   21.0286 H           1 X0T       0.1263
     26 H8         33.6069   49.7962   21.0882 H           1 X0T       0.0638
     27 H9         33.0442   48.3510   20.2485 H           1 X0T       0.0638
     28 H10        33.9373   48.9344   18.2043 H           1 X0T       0.0644
     29 H11        36.0460   49.1432   18.8866 H           1 X0T       0.2100
     30 H12        33.8555   51.8094   19.1749 H           1 X0T       0.0584
     31 H13        32.3702   50.8372   19.2678 H           1 X0T       0.0584
     32 H14        33.9549   51.3415   16.9765 H           1 X0T       0.2095
@<TRIPOS>BOND
     1     1     2   1
     2     2     3  am
     3     2    10   1
     4     3     4   2
     5     3     5  am
     6     5     6   1
     7     5     7  am
     8     7     8   2
     9     7     9   1
    10     9    10   2
    11     9    13   1
    12    10    11   1
    13    11    12   2
    14    12    13   1
    15    13    14   1
    16    14    15   1
    17    15    16   1
    18    15    17   1
    19    17    18   1
    20     1    19   1
    21     1    20   1
    22     1    21   1
    23     6    22   1
    24     6    23   1
    25     6    24   1
    26    12    25   1
    27    14    26   1
    28    14    27   1
    29    15    28   1
    30    16    29   1
    31    17    30   1
    32    17    31   1
    33    18    32   1
@<TRIPOS>SUBSTRUCTURE
     1  X0T      1

