@<TRIPOS>MOLECULE
2x0y_ligand_015
    32    33
SMALL
GAST_HUCK
****
This file was generated by PARSER (from files_GN.cpp)

@<TRIPOS>ATOM
      1 CAB        28.5192   53.5386   20.3792 C.3         1 X0T       0.0446
      2 N3         29.3745   52.7052   19.5557 N.am        1 X0T      -0.2025
      3 C2         28.9353   51.9039   18.5614 C.2         1 X0T       0.3177
      4 O2         27.7335   51.8677   18.3279 O.2         1 X0T      -0.3873
      5 N1         29.7891   51.1446   17.8144 N.am        1 X0T      -0.1740
      6 CAA        29.3055   50.2578   16.7688 C.3         1 X0T       0.0477
      7 C6         31.1225   51.1891   18.0501 C.2         1 X0T       0.2297
      8 O6         31.9174   50.5774   17.3576 O.2         1 X0T      -0.4007
      9 C5         31.6313   51.9510   19.0916 C.2         1 X0T       0.1627
     10 C4         30.7284   52.7196   19.8221 C.2         1 X0T       0.1377
     11 N9         31.4058   53.3754   20.7768 N.2         1 X0T      -0.2858
     12 C8         32.6922   53.0130   20.6528 C.2         1 X0T       0.0978
     13 N7         32.8530   52.1378   19.6320 N.pl3       1 X0T      -0.2487
     14 CAI        34.1102   51.5133   19.3186 C.3         1 X0T       0.0817
     15 CAO        34.4261   50.2912   20.2262 C.3         1 X0T       0.1052
     16 OAF        35.8451   50.1529   20.3645 O.3         1 X0T      -0.3868
     17 CAH        33.7860   48.9696   19.7305 C.3         1 X0T       0.0728
     18 OAE        34.0102   47.9391   20.6874 O.3         1 X0T      -0.3924
     19 H1         27.4641   53.4771   20.1131 H           1 X0T       0.0548
     20 H2         28.8226   54.5818   20.2815 H           1 X0T       0.0548
     21 H3         28.6130   53.2394   21.4241 H           1 X0T       0.0548
     22 H4         28.2189   50.2392   16.6475 H           1 X0T       0.0539
     23 H5         29.6138   49.2316   16.9858 H           1 X0T       0.0539
     24 H6         29.7283   50.5550   15.8066 H           1 X0T       0.0539
     25 H7         33.4342   53.3565   21.2657 H           1 X0T       0.1263
     26 H8         34.9158   52.2391   19.4506 H           1 X0T       0.0638
     27 H9         34.1414   51.2172   18.2699 H           1 X0T       0.0638
     28 H10        34.0365   50.4955   21.2269 H           1 X0T       0.0644
     29 H11        36.1162   49.3169   19.9177 H           1 X0T       0.2100
     30 H12        34.2157   48.6681   18.7693 H           1 X0T       0.0584
     31 H13        32.7037   49.0950   19.5978 H           1 X0T       0.0584
     32 H14        34.7845   47.4412   20.3426 H           1 X0T       0.2095
@<TRIPOS>BOND
     1     1     2   1
     2     2     3  am
     3     2    10   1
     4     3     4   2
     5     3     5  am
     6     5     6   1
     7     5     7  am
     8     7     8   2
     9     7     9   1
    10     9    10   2
    11     9    13   1
    12    10    11   1
    13    11    12   2
    14    12    13   1
    15    13    14   1
    16    14    15   1
    17    15    16   1
    18    15    17   1
    19    17    18   1
    20     1    19   1
    21     1    20   1
    22     1    21   1
    23     6    22   1
    24     6    23   1
    25     6    24   1
    26    12    25   1
    27    14    26   1
    28    14    27   1
    29    15    28   1
    30    16    29   1
    31    17    30   1
    32    17    31   1
    33    18    32   1
@<TRIPOS>SUBSTRUCTURE
     1  X0T      1

