@<TRIPOS>MOLECULE
2x0y_ligand_002
    32    33
SMALL
GAST_HUCK
****
This file was generated by PARSER (from files_GN.cpp)

@<TRIPOS>ATOM
      1 CAB        36.6837   41.9378   22.8859 C.3         1 X0T       0.0446
      2 N3         36.0861   43.2497   22.7455 N.am        1 X0T      -0.2025
      3 C2         36.7642   44.4139   22.7906 C.2         1 X0T       0.3177
      4 O2         37.9791   44.3668   22.9605 O.2         1 X0T      -0.3873
      5 N1         36.1497   45.6157   22.6460 N.am        1 X0T      -0.1740
      6 CAA        36.8974   46.8675   22.6932 C.3         1 X0T       0.0477
      7 C6         34.8084   45.6764   22.4571 C.2         1 X0T       0.2297
      8 O6         34.2307   46.7440   22.2861 O.2         1 X0T      -0.4007
      9 C5         34.0445   44.5142   22.4279 C.2         1 X0T       0.1627
     10 C4         34.7242   43.3086   22.5619 C.2         1 X0T       0.1377
     11 N9         33.8288   42.3148   22.4842 N.2         1 X0T      -0.2858
     12 C8         32.6282   42.8880   22.3131 C.2         1 X0T       0.0978
     13 N7         32.7264   44.2354   22.3071 N.pl3       1 X0T      -0.2487
     14 CAI        31.6514   45.1956   22.1896 C.3         1 X0T       0.0817
     15 CAO        30.2183   44.7701   22.6532 C.3         1 X0T       0.1052
     16 OAF        30.2847   44.2088   23.9650 O.3         1 X0T      -0.3868
     17 CAH        29.4511   43.8448   21.6523 C.3         1 X0T       0.0728
     18 OAE        29.0116   42.6232   22.2432 O.3         1 X0T      -0.3924
     19 H1         37.7606   41.9632   23.0652 H           1 X0T       0.0548
     20 H2         36.5157   41.3524   21.9758 H           1 X0T       0.0548
     21 H3         36.2268   41.4095   23.7268 H           1 X0T       0.0548
     22 H4         37.9680   46.7558   22.8786 H           1 X0T       0.0539
     23 H5         36.5052   47.5019   23.4917 H           1 X0T       0.0539
     24 H6         36.7915   47.3969   21.7429 H           1 X0T       0.0539
     25 H7         31.7711   42.3446   22.2176 H           1 X0T       0.1263
     26 H8         31.6134   45.5495   21.1576 H           1 X0T       0.0638
     27 H9         31.8972   46.0629   22.8100 H           1 X0T       0.0638
     28 H10        29.6390   45.6876   22.7655 H           1 X0T       0.0644
     29 H11        30.6034   43.2963   23.8370 H           1 X0T       0.2100
     30 H12        30.0708   43.5856   20.7982 H           1 X0T       0.0584
     31 H13        28.5613   44.3434   21.2786 H           1 X0T       0.0584
     32 H14        28.3466   42.9003   22.8986 H           1 X0T       0.2095
@<TRIPOS>BOND
     1     1     2   1
     2     2     3  am
     3     2    10   1
     4     3     4   2
     5     3     5  am
     6     5     6   1
     7     5     7  am
     8     7     8   2
     9     7     9   1
    10     9    10   2
    11     9    13   1
    12    10    11   1
    13    11    12   2
    14    12    13   1
    15    13    14   1
    16    14    15   1
    17    15    16   1
    18    15    17   1
    19    17    18   1
    20     1    19   1
    21     1    20   1
    22     1    21   1
    23     6    22   1
    24     6    23   1
    25     6    24   1
    26    12    25   1
    27    14    26   1
    28    14    27   1
    29    15    28   1
    30    16    29   1
    31    17    30   1
    32    17    31   1
    33    18    32   1
@<TRIPOS>SUBSTRUCTURE
     1  X0T      1

