@<TRIPOS>MOLECULE
2x0y_ligand_009
    32    33
SMALL
GAST_HUCK
****
This file was generated by PARSER (from files_GN.cpp)

@<TRIPOS>ATOM
      1 CAB        33.5624   44.4965   19.0889 C.3         1 X0T       0.0446
      2 N3         32.7773   43.2990   18.8806 N.am        1 X0T      -0.2025
      3 C2         32.5892   42.7080   17.6803 C.2         1 X0T       0.3177
      4 O2         33.1255   43.2056   16.6922 O.2         1 X0T      -0.3873
      5 N1         31.8294   41.5936   17.5345 N.am        1 X0T      -0.1740
      6 CAA        31.6247   40.9780   16.2255 C.3         1 X0T       0.0477
      7 C6         31.2485   41.0237   18.6193 C.2         1 X0T       0.2297
      8 O6         30.6004   39.9909   18.5175 O.2         1 X0T      -0.4007
      9 C5         31.4307   41.5576   19.8963 C.2         1 X0T       0.1627
     10 C4         32.2283   42.6935   19.9885 C.2         1 X0T       0.1377
     11 N9         32.3787   42.9957   21.2883 N.2         1 X0T      -0.2858
     12 C8         31.6794   42.0914   21.9848 C.2         1 X0T       0.0978
     13 N7         31.0604   41.2220   21.1590 N.pl3       1 X0T      -0.2487
     14 CAI        30.2323   40.1371   21.6291 C.3         1 X0T       0.0817
     15 CAO        28.9113   40.5485   22.3514 C.3         1 X0T       0.1052
     16 OAF        28.2232   41.5256   21.5721 O.3         1 X0T      -0.3868
     17 CAH        29.0649   41.0329   23.8241 C.3         1 X0T       0.0728
     18 OAE        29.3868   42.4179   23.9132 O.3         1 X0T      -0.3924
     19 H1         33.9824   44.9176   18.1728 H           1 X0T       0.0548
     20 H2         34.3993   44.2783   19.7572 H           1 X0T       0.0548
     21 H3         32.9392   45.2697   19.5458 H           1 X0T       0.0548
     22 H4         32.0874   41.5109   15.3905 H           1 X0T       0.0539
     23 H5         30.5567   40.9179   16.0034 H           1 X0T       0.0539
     24 H6         32.0360   39.9654   16.2209 H           1 X0T       0.0539
     25 H7         31.6553   42.0631   23.0047 H           1 X0T       0.1263
     26 H8         30.8219   39.4977   22.2948 H           1 X0T       0.0638
     27 H9         29.9424   39.5060   20.7893 H           1 X0T       0.0638
     28 H10        28.2669   39.6644   22.3742 H           1 X0T       0.0644
     29 H11        27.5019   41.8542   22.1481 H           1 X0T       0.2100
     30 H12        29.8379   40.4597   24.3431 H           1 X0T       0.0584
     31 H13        28.1237   40.8829   24.3653 H           1 X0T       0.0584
     32 H14        28.5447   42.8773   23.7026 H           1 X0T       0.2095
@<TRIPOS>BOND
     1     1     2   1
     2     2     3  am
     3     2    10   1
     4     3     4   2
     5     3     5  am
     6     5     6   1
     7     5     7  am
     8     7     8   2
     9     7     9   1
    10     9    10   2
    11     9    13   1
    12    10    11   1
    13    11    12   2
    14    12    13   1
    15    13    14   1
    16    14    15   1
    17    15    16   1
    18    15    17   1
    19    17    18   1
    20     1    19   1
    21     1    20   1
    22     1    21   1
    23     6    22   1
    24     6    23   1
    25     6    24   1
    26    12    25   1
    27    14    26   1
    28    14    27   1
    29    15    28   1
    30    16    29   1
    31    17    30   1
    32    17    31   1
    33    18    32   1
@<TRIPOS>SUBSTRUCTURE
     1  X0T      1

