@<TRIPOS>MOLECULE
2x0y_ligand_013
    32    33
SMALL
GAST_HUCK
****
This file was generated by PARSER (from files_GN.cpp)

@<TRIPOS>ATOM
      1 CAB        33.2686   47.2608   12.9535 C.3         1 X0T       0.0446
      2 N3         32.8763   48.2372   13.9488 N.am        1 X0T      -0.2025
      3 C2         32.2348   49.3953   13.6726 C.2         1 X0T       0.3177
      4 O2         31.9727   49.6502   12.5015 O.2         1 X0T      -0.3873
      5 N1         31.8696   50.2691   14.6455 N.am        1 X0T      -0.1740
      6 CAA        31.1773   51.5138   14.3395 C.3         1 X0T       0.0477
      7 C6         32.1541   50.0030   15.9455 C.2         1 X0T       0.2297
      8 O6         31.7731   50.7377   16.8466 O.2         1 X0T      -0.4007
      9 C5         32.8427   48.8482   16.2982 C.2         1 X0T       0.1627
     10 C4         33.1727   47.9692   15.2666 C.2         1 X0T       0.1377
     11 N9         33.7875   46.9050   15.8060 N.2         1 X0T      -0.2858
     12 C8         33.8480   47.1266   17.1281 C.2         1 X0T       0.0978
     13 N7         33.2973   48.3153   17.4572 N.pl3       1 X0T      -0.2487
     14 CAI        33.2555   48.8378   18.8029 C.3         1 X0T       0.0817
     15 CAO        34.5063   49.6977   19.1984 C.3         1 X0T       0.1052
     16 OAF        35.1294   49.1793   20.3768 O.3         1 X0T      -0.3868
     17 CAH        34.2027   51.1845   19.4842 C.3         1 X0T       0.0728
     18 OAE        33.4811   51.7829   18.4181 O.3         1 X0T      -0.3924
     19 H1         33.0212   47.5506   11.9289 H           1 X0T       0.0548
     20 H2         32.7638   46.3150   13.1521 H           1 X0T       0.0548
     21 H3         34.3466   47.0985   12.9925 H           1 X0T       0.0548
     22 H4         30.9660   51.6595   13.2782 H           1 X0T       0.0539
     23 H5         31.7876   52.3608   14.6602 H           1 X0T       0.0539
     24 H6         30.2182   51.5533   14.8607 H           1 X0T       0.0539
     25 H7         34.2604   46.4621   17.7821 H           1 X0T       0.1263
     26 H8         33.1711   47.9973   19.5028 H           1 X0T       0.0638
     27 H9         32.3419   49.4149   18.9503 H           1 X0T       0.0638
     28 H10        35.2531   49.6541   18.3965 H           1 X0T       0.0644
     29 H11        35.8274   48.5779   20.0532 H           1 X0T       0.2100
     30 H12        35.1415   51.7404   19.6131 H           1 X0T       0.0584
     31 H13        33.6201   51.2779   20.4064 H           1 X0T       0.0584
     32 H14        34.0459   51.6413   17.6305 H           1 X0T       0.2095
@<TRIPOS>BOND
     1     1     2   1
     2     2     3  am
     3     2    10   1
     4     3     4   2
     5     3     5  am
     6     5     6   1
     7     5     7  am
     8     7     8   2
     9     7     9   1
    10     9    10   2
    11     9    13   1
    12    10    11   1
    13    11    12   2
    14    12    13   1
    15    13    14   1
    16    14    15   1
    17    15    16   1
    18    15    17   1
    19    17    18   1
    20     1    19   1
    21     1    20   1
    22     1    21   1
    23     6    22   1
    24     6    23   1
    25     6    24   1
    26    12    25   1
    27    14    26   1
    28    14    27   1
    29    15    28   1
    30    16    29   1
    31    17    30   1
    32    17    31   1
    33    18    32   1
@<TRIPOS>SUBSTRUCTURE
     1  X0T      1

