@<TRIPOS>MOLECULE
2x0y_ligand_006
    32    33
SMALL
GAST_HUCK
****
This file was generated by PARSER (from files_GN.cpp)

@<TRIPOS>ATOM
      1 CAB        30.1083   52.5232   17.3527 C.3         1 X0T       0.0446
      2 N3         30.9544   51.3502   17.2821 N.am        1 X0T      -0.2025
      3 C2         30.7103   50.2716   16.5077 C.2         1 X0T       0.3177
      4 O2         29.7008   50.2730   15.8110 O.2         1 X0T      -0.3873
      5 N1         31.5447   49.1980   16.4799 N.am        1 X0T      -0.1740
      6 CAA        31.2815   48.0426   15.6304 C.3         1 X0T       0.0477
      7 C6         32.6568   49.1837   17.2534 C.2         1 X0T       0.2297
      8 O6         33.4241   48.2308   17.2538 O.2         1 X0T      -0.4007
      9 C5         32.9624   50.2612   18.0800 C.2         1 X0T       0.1627
     10 C4         32.0881   51.3381   18.0628 C.2         1 X0T       0.1377
     11 N9         32.5543   52.2786   18.8989 N.2         1 X0T      -0.2858
     12 C8         33.6911   51.8001   19.4169 C.2         1 X0T       0.0978
     13 N7         33.9512   50.5612   18.9534 N.pl3       1 X0T      -0.2487
     14 CAI        35.1165   49.8038   19.3381 C.3         1 X0T       0.0817
     15 CAO        34.9802   49.0752   20.7085 C.3         1 X0T       0.1052
     16 OAF        33.9789   48.0672   20.6273 O.3         1 X0T      -0.3868
     17 CAH        34.6575   49.9988   21.9094 C.3         1 X0T       0.0728
     18 OAE        35.6479   51.0038   22.0639 O.3         1 X0T      -0.3924
     19 H1         29.2304   52.4743   16.7081 H           1 X0T       0.0548
     20 H2         30.6791   53.4070   17.0592 H           1 X0T       0.0548
     21 H3         29.7537   52.6605   18.3768 H           1 X0T       0.0548
     22 H4         30.3677   48.1119   15.0387 H           1 X0T       0.0539
     23 H5         31.1950   47.1416   16.2427 H           1 X0T       0.0539
     24 H6         32.1055   47.9061   14.9261 H           1 X0T       0.0539
     25 H7         34.2613   52.3104   20.0909 H           1 X0T       0.1263
     26 H8         35.9858   50.4688   19.3782 H           1 X0T       0.0638
     27 H9         35.3527   49.0617   18.5752 H           1 X0T       0.0638
     28 H10        35.9323   48.5761   20.9238 H           1 X0T       0.0644
     29 H11        34.3301   47.4398   19.9522 H           1 X0T       0.2100
     30 H12        34.6124   49.4158   22.8242 H           1 X0T       0.0584
     31 H13        33.6904   50.4762   21.7686 H           1 X0T       0.0584
     32 H14        35.2981   51.6357   22.7209 H           1 X0T       0.2095
@<TRIPOS>BOND
     1     1     2   1
     2     2     3  am
     3     2    10   1
     4     3     4   2
     5     3     5  am
     6     5     6   1
     7     5     7  am
     8     7     8   2
     9     7     9   1
    10     9    10   2
    11     9    13   1
    12    10    11   1
    13    11    12   2
    14    12    13   1
    15    13    14   1
    16    14    15   1
    17    15    16   1
    18    15    17   1
    19    17    18   1
    20     1    19   1
    21     1    20   1
    22     1    21   1
    23     6    22   1
    24     6    23   1
    25     6    24   1
    26    12    25   1
    27    14    26   1
    28    14    27   1
    29    15    28   1
    30    16    29   1
    31    17    30   1
    32    17    31   1
    33    18    32   1
@<TRIPOS>SUBSTRUCTURE
     1  X0T      1

