@<TRIPOS>MOLECULE
2x0y_ligand_003
    32    33
SMALL
GAST_HUCK
****
This file was generated by PARSER (from files_GN.cpp)

@<TRIPOS>ATOM
      1 CAB        37.1205   41.7559   23.0124 C.3         1 X0T       0.0446
      2 N3         36.7330   43.0637   22.5227 N.am        1 X0T      -0.2025
      3 C2         37.4036   44.2050   22.7880 C.2         1 X0T       0.3177
      4 O2         38.4401   44.1336   23.4397 O.2         1 X0T      -0.3873
      5 N1         36.9725   45.4115   22.3373 N.am        1 X0T      -0.1740
      6 CAA        37.6782   46.6447   22.6667 C.3         1 X0T       0.0477
      7 C6         35.8594   45.4964   21.5712 C.2         1 X0T       0.2297
      8 O6         35.4437   46.5768   21.1705 O.2         1 X0T      -0.4007
      9 C5         35.1473   44.3554   21.2274 C.2         1 X0T       0.1627
     10 C4         35.6141   43.1456   21.7273 C.2         1 X0T       0.1377
     11 N9         34.8126   42.1645   21.2831 N.2         1 X0T      -0.2858
     12 C8         33.8771   42.7432   20.5210 C.2         1 X0T       0.0978
     13 N7         34.0607   44.0796   20.4668 N.pl3       1 X0T      -0.2487
     14 CAI        33.2352   44.9679   19.6930 C.3         1 X0T       0.0817
     15 CAO        33.4676   44.8088   18.1607 C.3         1 X0T       0.1052
     16 OAF        34.8487   44.6088   17.8596 O.3         1 X0T      -0.3868
     17 CAH        32.9316   46.0069   17.3291 C.3         1 X0T       0.0728
     18 OAE        33.2358   47.2743   17.9226 O.3         1 X0T      -0.3924
     19 H1         37.9935   41.7658   23.6693 H           1 X0T       0.0548
     20 H2         37.3522   41.1050   22.1662 H           1 X0T       0.0548
     21 H3         36.2954   41.3140   23.5786 H           1 X0T       0.0548
     22 H4         38.5666   46.5100   23.2918 H           1 X0T       0.0539
     23 H5         37.0095   47.3182   23.2105 H           1 X0T       0.0539
     24 H6         38.0071   47.1402   21.7496 H           1 X0T       0.0539
     25 H7         33.1371   42.2223   20.0474 H           1 X0T       0.1263
     26 H8         33.4150   46.0004   19.9816 H           1 X0T       0.0638
     27 H9         32.1817   44.7735   19.9108 H           1 X0T       0.0638
     28 H10        32.9482   43.9108   17.8217 H           1 X0T       0.0644
     29 H11        35.3126   45.3748   18.2487 H           1 X0T       0.2100
     30 H12        31.8469   45.9302   17.2275 H           1 X0T       0.0584
     31 H13        33.3688   45.9826   16.3275 H           1 X0T       0.0584
     32 H14        34.1870   47.2353   18.1565 H           1 X0T       0.2095
@<TRIPOS>BOND
     1     1     2   1
     2     2     3  am
     3     2    10   1
     4     3     4   2
     5     3     5  am
     6     5     6   1
     7     5     7  am
     8     7     8   2
     9     7     9   1
    10     9    10   2
    11     9    13   1
    12    10    11   1
    13    11    12   2
    14    12    13   1
    15    13    14   1
    16    14    15   1
    17    15    16   1
    18    15    17   1
    19    17    18   1
    20     1    19   1
    21     1    20   1
    22     1    21   1
    23     6    22   1
    24     6    23   1
    25     6    24   1
    26    12    25   1
    27    14    26   1
    28    14    27   1
    29    15    28   1
    30    16    29   1
    31    17    30   1
    32    17    31   1
    33    18    32   1
@<TRIPOS>SUBSTRUCTURE
     1  X0T      1

