@<TRIPOS>MOLECULE
2x0y_ligand_001
    32    33
SMALL
GAST_HUCK
****
This file was generated by PARSER (from files_GN.cpp)

@<TRIPOS>ATOM
      1 CAB        36.8928   42.4756   22.7367 C.3         1 X0T       0.0446
      2 N3         35.9663   43.5761   22.5940 N.am        1 X0T      -0.2025
      3 C2         34.6234   43.4606   22.7347 C.2         1 X0T       0.3177
      4 O2         34.1405   42.3465   22.9186 O.2         1 X0T      -0.3873
      5 N1         33.7995   44.5409   22.6756 N.am        1 X0T      -0.1740
      6 CAA        32.3535   44.4158   22.7850 C.3         1 X0T       0.0477
      7 C6         34.3190   45.7868   22.5042 C.2         1 X0T       0.2297
      8 O6         33.6350   46.8082   22.5220 O.2         1 X0T      -0.4007
      9 C5         35.6763   45.9515   22.2446 C.2         1 X0T       0.1627
     10 C4         36.4809   44.8143   22.2962 C.2         1 X0T       0.1377
     11 N9         37.7519   45.1786   22.0536 N.2         1 X0T      -0.2858
     12 C8         37.7294   46.5075   21.8621 C.2         1 X0T       0.0978
     13 N7         36.4751   47.0127   21.9806 N.pl3       1 X0T      -0.2487
     14 CAI        36.1488   48.4180   22.0064 C.3         1 X0T       0.0817
     15 CAO        34.9749   48.9463   21.1114 C.3         1 X0T       0.1052
     16 OAF        34.0880   47.9064   20.7301 O.3         1 X0T      -0.3868
     17 CAH        35.3541   49.7916   19.8523 C.3         1 X0T       0.0728
     18 OAE        36.5924   50.5077   19.9920 O.3         1 X0T      -0.3924
     19 H1         36.4240   41.5259   23.0110 H           1 X0T       0.0548
     20 H2         37.6253   42.7094   23.5196 H           1 X0T       0.0548
     21 H3         37.4316   42.3211   21.7942 H           1 X0T       0.0548
     22 H4         31.9959   43.3948   22.8541 H           1 X0T       0.0539
     23 H5         31.8904   44.8534   21.8969 H           1 X0T       0.0539
     24 H6         31.9920   44.9491   23.6684 H           1 X0T       0.0539
     25 H7         38.5807   47.0585   21.7008 H           1 X0T       0.1263
     26 H8         37.0507   49.0067   21.7883 H           1 X0T       0.0638
     27 H9         35.9112   48.6531   23.0498 H           1 X0T       0.0638
     28 H10        34.3939   49.6263   21.7421 H           1 X0T       0.0644
     29 H11        34.5565   47.4395   20.0025 H           1 X0T       0.2100
     30 H12        34.5630   50.5380   19.6919 H           1 X0T       0.0584
     31 H13        35.3879   49.1706   18.9363 H           1 X0T       0.0584
     32 H14        37.2603   49.8557   19.6828 H           1 X0T       0.2095
@<TRIPOS>BOND
     1     1     2   1
     2     2     3  am
     3     2    10   1
     4     3     4   2
     5     3     5  am
     6     5     6   1
     7     5     7  am
     8     7     8   2
     9     7     9   1
    10     9    10   2
    11     9    13   1
    12    10    11   1
    13    11    12   2
    14    12    13   1
    15    13    14   1
    16    14    15   1
    17    15    16   1
    18    15    17   1
    19    17    18   1
    20     1    19   1
    21     1    20   1
    22     1    21   1
    23     6    22   1
    24     6    23   1
    25     6    24   1
    26    12    25   1
    27    14    26   1
    28    14    27   1
    29    15    28   1
    30    16    29   1
    31    17    30   1
    32    17    31   1
    33    18    32   1
@<TRIPOS>SUBSTRUCTURE
     1  X0T      1

