@<TRIPOS>MOLECULE
2x8z_ligand_000
    28    28
SMALL
GAST_HUCK
****
This file was generated by PARSER (from files_GN.cpp)

@<TRIPOS>ATOM
      1 O1         32.8460    8.0033  -37.6459 O.2         1 X8Z      -0.3964
      2 C4         31.8050    7.4434  -37.3111 C.2         1 X8Z       0.1838
      3 C2         31.7566    6.0020  -37.6360 C.3         1 X8Z       0.0548
      4 C1         31.0594    5.0865  -36.5748 C.3         1 X8Z       0.0101
      5 S          31.8707    3.4739  -36.3900 S.3         1 X8Z      -0.1756
      6 C3         31.2251    5.7584  -39.0775 C.3         1 X8Z      -0.0446
      7 N          30.8602    8.1942  -36.7098 N.am        1 X8Z      -0.2572
      8 C8         31.0833    9.5462  -36.2229 C.3         1 X8Z       0.0971
      9 C9         32.0733    9.6877  -35.1149 C.2         1 X8Z       0.0603
     10 O3         33.3643    9.3279  -35.2798 O.co2       1 X8Z      -0.5666
     11 O2         31.8713   10.6106  -34.1406 O.co2       1 X8Z      -0.5666
     12 C5         29.4752    7.8185  -36.6298 C.3         1 X8Z       0.0362
     13 C6         28.7033    9.1415  -36.5282 C.3         1 X8Z      -0.0288
     14 C7         29.6810   10.0611  -35.8000 C.3         1 X8Z      -0.0159
     15 H1         32.7934    5.6466  -37.6625 H           1 X8Z       0.0543
     16 H2         30.0076    4.9335  -36.8337 H           1 X8Z       0.0401
     17 H3         31.0911    5.5544  -35.5920 H           1 X8Z       0.0401
     18 H4         30.7726    2.7556  -36.7410 H           1 X8Z       0.1018
     19 H5         31.8170    6.3271  -39.7973 H           1 X8Z       0.0257
     20 H6         30.1810    6.0562  -39.1802 H           1 X8Z       0.0257
     21 H7         31.3104    4.7028  -39.3377 H           1 X8Z       0.0257
     22 H8         31.4264   10.1604  -37.0622 H           1 X8Z       0.0728
     23 H9         29.2965    7.2069  -35.7408 H           1 X8Z       0.0524
     24 H10        29.1205    7.2814  -37.5123 H           1 X8Z       0.0524
     25 H11        27.7596    9.0222  -35.9848 H           1 X8Z       0.0286
     26 H12        28.4938    9.5334  -37.5276 H           1 X8Z       0.0286
     27 H13        29.5279   11.1041  -36.0842 H           1 X8Z       0.0306
     28 H14        29.5040    9.9579  -34.7275 H           1 X8Z       0.0306
@<TRIPOS>BOND
     1     1     2   2
     2     2     3   1
     3     2     7  am
     4     3     4   1
     5     3     6   1
     6     4     5   1
     7     7     8   1
     8     7    12   1
     9     8     9   1
    10     8    14   1
    11     9    10  ar
    12     9    11  ar
    13    12    13   1
    14    13    14   1
    15     3    15   1
    16     4    16   1
    17     4    17   1
    18     5    18   1
    19     6    19   1
    20     6    20   1
    21     6    21   1
    22     8    22   1
    23    12    23   1
    24    12    24   1
    25    13    25   1
    26    13    26   1
    27    14    27   1
    28    14    28   1
@<TRIPOS>SUBSTRUCTURE
     1  X8Z      2

