@<TRIPOS>MOLECULE
2x8z_ligand_075
    28    28
SMALL
GAST_HUCK
****
This file was generated by PARSER (from files_GN.cpp)

@<TRIPOS>ATOM
      1 O1         27.1785    8.1855  -37.7956 O.2         1 X8Z      -0.3964
      2 C4         28.0176    7.4217  -37.3238 C.2         1 X8Z       0.1838
      3 C2         29.3992    7.9135  -37.3086 C.3         1 X8Z       0.0548
      4 C1         29.9156    8.1717  -38.7595 C.3         1 X8Z       0.0101
      5 S          31.6843    8.5733  -38.8583 S.3         1 X8Z      -0.1756
      6 C3         29.5011    9.1784  -36.3987 C.3         1 X8Z      -0.0446
      7 N          27.5999    6.2413  -36.8323 N.am        1 X8Z      -0.2572
      8 C8         26.1992    5.8909  -36.6702 C.3         1 X8Z       0.0971
      9 C9         25.3740    6.8223  -35.8606 C.2         1 X8Z       0.0603
     10 O3         25.8960    7.9607  -35.3474 O.co2       1 X8Z      -0.5666
     11 O2         24.0943    6.4973  -35.5461 O.co2       1 X8Z      -0.5666
     12 C5         28.4630    5.1561  -36.4670 C.3         1 X8Z       0.0362
     13 C6         27.5625    3.9116  -36.4008 C.3         1 X8Z      -0.0288
     14 C7         26.2023    4.4931  -36.0020 C.3         1 X8Z      -0.0159
     15 H1         30.0720    7.1840  -36.8625 H           1 X8Z       0.0543
     16 H2         29.3606    8.9959  -39.2234 H           1 X8Z       0.0401
     17 H3         29.7530    7.2704  -39.3650 H           1 X8Z       0.0401
     18 H4         31.6563    8.6423  -40.2269 H           1 X8Z       0.1018
     19 H5         29.0333    8.9849  -35.4195 H           1 X8Z       0.0257
     20 H6         28.9905   10.0420  -36.8584 H           1 X8Z       0.0257
     21 H7         30.5513    9.4520  -36.2221 H           1 X8Z       0.0257
     22 H8         25.7418    5.8106  -37.6639 H           1 X8Z       0.0728
     23 H9         28.9173    5.3635  -35.4900 H           1 X8Z       0.0524
     24 H10        29.2515    4.9853  -37.2107 H           1 X8Z       0.0524
     25 H11        27.9330    3.1777  -35.6788 H           1 X8Z       0.0286
     26 H12        27.4924    3.4437  -37.3925 H           1 X8Z       0.0286
     27 H13        25.3818    3.8612  -36.3472 H           1 X8Z       0.0306
     28 H14        26.1698    4.5581  -34.9050 H           1 X8Z       0.0306
@<TRIPOS>BOND
     1     1     2   2
     2     2     3   1
     3     2     7  am
     4     3     4   1
     5     3     6   1
     6     4     5   1
     7     7     8   1
     8     7    12   1
     9     8     9   1
    10     8    14   1
    11     9    10  ar
    12     9    11  ar
    13    12    13   1
    14    13    14   1
    15     3    15   1
    16     4    16   1
    17     4    17   1
    18     5    18   1
    19     6    19   1
    20     6    20   1
    21     6    21   1
    22     8    22   1
    23    12    23   1
    24    12    24   1
    25    13    25   1
    26    13    26   1
    27    14    27   1
    28    14    28   1
@<TRIPOS>SUBSTRUCTURE
     1  X8Z      2

