@<TRIPOS>MOLECULE
2x8z_ligand_059
    28    28
SMALL
GAST_HUCK
****
This file was generated by PARSER (from files_GN.cpp)

@<TRIPOS>ATOM
      1 O1         32.4314    5.7464  -45.0467 O.2         1 X8Z      -0.3964
      2 C4         31.2104    5.7887  -45.2063 C.2         1 X8Z       0.1838
      3 C2         30.7952    6.6287  -46.3471 C.3         1 X8Z       0.0548
      4 C1         29.5998    6.0867  -47.2071 C.3         1 X8Z       0.0101
      5 S          29.8736    6.2638  -48.9947 S.3         1 X8Z      -0.1756
      6 C3         30.6062    8.1152  -45.9412 C.3         1 X8Z      -0.0446
      7 N          30.4504    5.0689  -44.3559 N.am        1 X8Z      -0.2572
      8 C8         29.0053    5.0663  -44.2388 C.3         1 X8Z       0.0971
      9 C9         28.3939    6.3879  -43.9603 C.2         1 X8Z       0.0603
     10 O3         27.2824    6.7803  -44.6291 O.co2       1 X8Z      -0.5666
     11 O2         28.8026    7.1270  -42.9059 O.co2       1 X8Z      -0.5666
     12 C5         31.0538    4.1079  -43.4665 C.3         1 X8Z       0.0362
     13 C6         29.9121    3.1957  -42.9986 C.3         1 X8Z      -0.0288
     14 C7         28.6831    4.0971  -43.0714 C.3         1 X8Z      -0.0159
     15 H1         31.6453    6.6404  -47.0354 H           1 X8Z       0.0543
     16 H2         28.6839    6.6411  -46.9687 H           1 X8Z       0.0401
     17 H3         29.4099    5.0264  -46.9827 H           1 X8Z       0.0401
     18 H4         28.6409    5.7906  -49.3334 H           1 X8Z       0.1018
     19 H5         31.5142    8.5037  -45.4753 H           1 X8Z       0.0257
     20 H6         29.7810    8.2394  -45.2386 H           1 X8Z       0.0257
     21 H7         30.3819    8.7159  -46.8234 H           1 X8Z       0.0257
     22 H8         28.5877    4.6639  -45.1770 H           1 X8Z       0.0728
     23 H9         31.5167    4.6281  -42.6220 H           1 X8Z       0.0524
     24 H10        31.8141    3.4901  -43.9605 H           1 X8Z       0.0524
     25 H11        30.0810    2.8231  -41.9883 H           1 X8Z       0.0286
     26 H12        29.7937    2.3517  -43.6835 H           1 X8Z       0.0286
     27 H13        27.7689    3.5312  -43.2677 H           1 X8Z       0.0306
     28 H14        28.5786    4.6137  -42.1120 H           1 X8Z       0.0306
@<TRIPOS>BOND
     1     1     2   2
     2     2     3   1
     3     2     7  am
     4     3     4   1
     5     3     6   1
     6     4     5   1
     7     7     8   1
     8     7    12   1
     9     8     9   1
    10     8    14   1
    11     9    10  ar
    12     9    11  ar
    13    12    13   1
    14    13    14   1
    15     3    15   1
    16     4    16   1
    17     4    17   1
    18     5    18   1
    19     6    19   1
    20     6    20   1
    21     6    21   1
    22     8    22   1
    23    12    23   1
    24    12    24   1
    25    13    25   1
    26    13    26   1
    27    14    27   1
    28    14    28   1
@<TRIPOS>SUBSTRUCTURE
     1  X8Z      2

