@<TRIPOS>MOLECULE
2x8z_ligand_082
    28    28
SMALL
GAST_HUCK
****
This file was generated by PARSER (from files_GN.cpp)

@<TRIPOS>ATOM
      1 O1         29.2185    8.8859  -43.2064 O.2         1 X8Z      -0.3964
      2 C4         29.1171    7.8279  -43.8208 C.2         1 X8Z       0.1838
      3 C2         27.7650    7.4751  -44.2712 C.3         1 X8Z       0.0548
      4 C1         26.8889    7.0813  -43.0418 C.3         1 X8Z       0.0101
      5 S          25.3400    6.2759  -43.5155 S.3         1 X8Z      -0.1756
      6 C3         27.1333    8.6188  -45.1200 C.3         1 X8Z      -0.0446
      7 N          30.2121    7.0575  -43.9623 N.am        1 X8Z      -0.2572
      8 C8         31.5374    7.4631  -43.5462 C.3         1 X8Z       0.0971
      9 C9         32.0220    8.7654  -44.0533 C.2         1 X8Z       0.0603
     10 O3         31.6641    9.1849  -45.2903 O.co2       1 X8Z      -0.5666
     11 O2         33.1054    9.3446  -43.4837 O.co2       1 X8Z      -0.5666
     12 C5         30.1936    5.7011  -44.4263 C.3         1 X8Z       0.0362
     13 C6         31.5498    5.0988  -44.0380 C.3         1 X8Z      -0.0288
     14 C7         32.4648    6.3230  -44.0187 C.3         1 X8Z      -0.0159
     15 H1         27.8087    6.6120  -44.9360 H           1 X8Z       0.0543
     16 H2         26.6505    7.9589  -42.4322 H           1 X8Z       0.0401
     17 H3         27.4394    6.3740  -42.4070 H           1 X8Z       0.0401
     18 H4         25.0919    5.8079  -42.2499 H           1 X8Z       0.1018
     19 H5         27.7808    8.8472  -45.9748 H           1 X8Z       0.0257
     20 H6         27.0061    9.5279  -44.5180 H           1 X8Z       0.0257
     21 H7         26.1573    8.3189  -45.5057 H           1 X8Z       0.0257
     22 H8         31.5389    7.5010  -42.4517 H           1 X8Z       0.0728
     23 H9         30.0543    5.6753  -45.5087 H           1 X8Z       0.0524
     24 H10        29.4010    5.1231  -43.9456 H           1 X8Z       0.0524
     25 H11        31.8839    4.3411  -44.7527 H           1 X8Z       0.0286
     26 H12        31.4982    4.6499  -43.0391 H           1 X8Z       0.0286
     27 H13        33.3209    6.1790  -43.3541 H           1 X8Z       0.0306
     28 H14        32.8278    6.4960  -45.0349 H           1 X8Z       0.0306
@<TRIPOS>BOND
     1     1     2   2
     2     2     3   1
     3     2     7  am
     4     3     4   1
     5     3     6   1
     6     4     5   1
     7     7     8   1
     8     7    12   1
     9     8     9   1
    10     8    14   1
    11     9    10  ar
    12     9    11  ar
    13    12    13   1
    14    13    14   1
    15     3    15   1
    16     4    16   1
    17     4    17   1
    18     5    18   1
    19     6    19   1
    20     6    20   1
    21     6    21   1
    22     8    22   1
    23    12    23   1
    24    12    24   1
    25    13    25   1
    26    13    26   1
    27    14    27   1
    28    14    28   1
@<TRIPOS>SUBSTRUCTURE
     1  X8Z      2

