@<TRIPOS>MOLECULE
2x8z_ligand_040
    28    28
SMALL
GAST_HUCK
****
This file was generated by PARSER (from files_GN.cpp)

@<TRIPOS>ATOM
      1 O1         26.0765   -1.4401  -48.4990 O.2         1 X8Z      -0.3964
      2 C4         25.2673   -1.4150  -47.5757 C.2         1 X8Z       0.1838
      3 C2         23.9579   -1.9792  -47.9740 C.3         1 X8Z       0.0548
      4 C1         24.0721   -3.5016  -48.3126 C.3         1 X8Z       0.0101
      5 S          24.5525   -4.5321  -46.9007 S.3         1 X8Z      -0.1756
      6 C3         22.6990   -1.7252  -47.0966 C.3         1 X8Z      -0.0446
      7 N          25.7094   -0.9397  -46.3897 N.am        1 X8Z      -0.2572
      8 C8         27.0867   -0.5595  -46.1667 C.3         1 X8Z       0.0971
      9 C9         28.0772   -1.6358  -46.3894 C.2         1 X8Z       0.0603
     10 O3         29.3828   -1.3294  -46.5375 O.co2       1 X8Z      -0.5666
     11 O2         27.7147   -2.9374  -46.4185 O.co2       1 X8Z      -0.5666
     12 C5         24.9282   -0.6825  -45.2150 C.3         1 X8Z       0.0362
     13 C6         25.7422    0.2850  -44.3410 C.3         1 X8Z      -0.0288
     14 C7         27.1867   -0.0408  -44.7110 C.3         1 X8Z      -0.0159
     15 H1         23.6884   -1.4941  -48.9289 H           1 X8Z       0.0543
     16 H2         24.8098   -3.6500  -49.1087 H           1 X8Z       0.0401
     17 H3         23.1109   -3.8605  -48.6960 H           1 X8Z       0.0401
     18 H4         24.2521   -5.6962  -47.5546 H           1 X8Z       0.1018
     19 H5         22.5697   -0.6533  -46.9215 H           1 X8Z       0.0257
     20 H6         22.7899   -2.2163  -46.1338 H           1 X8Z       0.0257
     21 H7         21.7969   -2.1076  -47.5904 H           1 X8Z       0.0257
     22 H8         27.3228    0.2753  -46.8284 H           1 X8Z       0.0728
     23 H9         24.7400   -1.6240  -44.6791 H           1 X8Z       0.0524
     24 H10        23.9716   -0.1837  -45.4452 H           1 X8Z       0.0524
     25 H11        25.5386    0.1392  -43.2853 H           1 X8Z       0.0286
     26 H12        25.4945    1.3156  -44.6166 H           1 X8Z       0.0286
     27 H13        27.8303    0.8431  -44.6327 H           1 X8Z       0.0306
     28 H14        27.5564   -0.8059  -44.0210 H           1 X8Z       0.0306
@<TRIPOS>BOND
     1     1     2   2
     2     2     3   1
     3     2     7  am
     4     3     4   1
     5     3     6   1
     6     4     5   1
     7     7     8   1
     8     7    12   1
     9     8     9   1
    10     8    14   1
    11     9    10  ar
    12     9    11  ar
    13    12    13   1
    14    13    14   1
    15     3    15   1
    16     4    16   1
    17     4    17   1
    18     5    18   1
    19     6    19   1
    20     6    20   1
    21     6    21   1
    22     8    22   1
    23    12    23   1
    24    12    24   1
    25    13    25   1
    26    13    26   1
    27    14    27   1
    28    14    28   1
@<TRIPOS>SUBSTRUCTURE
     1  X8Z      2

