@<TRIPOS>MOLECULE
2x8z_ligand_031
    28    28
SMALL
GAST_HUCK
****
This file was generated by PARSER (from files_GN.cpp)

@<TRIPOS>ATOM
      1 O1         24.5860   -1.4047  -43.9420 O.2         1 X8Z      -0.3964
      2 C4         25.7715   -1.6747  -44.1134 C.2         1 X8Z       0.1838
      3 C2         26.7085   -0.9913  -43.2071 C.3         1 X8Z       0.0548
      4 C1         26.5417    0.5692  -43.2091 C.3         1 X8Z       0.0101
      5 S          27.0586    1.3689  -44.7493 S.3         1 X8Z      -0.1756
      6 C3         26.5631   -1.5610  -41.7651 C.3         1 X8Z      -0.0446
      7 N          26.0876   -2.6114  -45.0341 N.am        1 X8Z      -0.2572
      8 C8         27.4225   -3.0301  -45.3997 C.3         1 X8Z       0.0971
      9 C9         28.2538   -1.9607  -45.9742 C.2         1 X8Z       0.0603
     10 O3         29.5782   -1.8836  -45.6893 O.co2       1 X8Z      -0.5666
     11 O2         27.7444   -1.1232  -46.9174 O.co2       1 X8Z      -0.5666
     12 C5         25.0847   -3.3852  -45.7082 C.3         1 X8Z       0.0362
     13 C6         25.8029   -4.6472  -46.2089 C.3         1 X8Z      -0.0288
     14 C7         27.2370   -4.1722  -46.4320 C.3         1 X8Z      -0.0159
     15 H1         27.7429   -1.1909  -43.4869 H           1 X8Z       0.0543
     16 H2         27.1319    1.0100  -42.3990 H           1 X8Z       0.0401
     17 H3         25.4919    0.8335  -43.0432 H           1 X8Z       0.0401
     18 H4         28.3797    1.1090  -44.5491 H           1 X8Z       0.1018
     19 H5         26.7230   -2.6429  -41.7625 H           1 X8Z       0.0257
     20 H6         25.5723   -1.3516  -41.3593 H           1 X8Z       0.0257
     21 H7         27.3108   -1.1120  -41.1010 H           1 X8Z       0.0257
     22 H8         27.9191   -3.4396  -44.5117 H           1 X8Z       0.0728
     23 H9         24.6720   -2.8083  -46.5429 H           1 X8Z       0.0524
     24 H10        24.2643   -3.6871  -45.0471 H           1 X8Z       0.0524
     25 H11        25.3493   -5.0378  -47.1222 H           1 X8Z       0.0286
     26 H12        25.7811   -5.4189  -45.4340 H           1 X8Z       0.0286
     27 H13        27.9543   -4.9800  -46.2735 H           1 X8Z       0.0306
     28 H14        27.3308   -3.8187  -47.4652 H           1 X8Z       0.0306
@<TRIPOS>BOND
     1     1     2   2
     2     2     3   1
     3     2     7  am
     4     3     4   1
     5     3     6   1
     6     4     5   1
     7     7     8   1
     8     7    12   1
     9     8     9   1
    10     8    14   1
    11     9    10  ar
    12     9    11  ar
    13    12    13   1
    14    13    14   1
    15     3    15   1
    16     4    16   1
    17     4    17   1
    18     5    18   1
    19     6    19   1
    20     6    20   1
    21     6    21   1
    22     8    22   1
    23    12    23   1
    24    12    24   1
    25    13    25   1
    26    13    26   1
    27    14    27   1
    28    14    28   1
@<TRIPOS>SUBSTRUCTURE
     1  X8Z      2

