@<TRIPOS>MOLECULE
2x8z_ligand_065
    28    28
SMALL
GAST_HUCK
****
This file was generated by PARSER (from files_GN.cpp)

@<TRIPOS>ATOM
      1 O1         24.1783   -1.8363  -44.7504 O.2         1 X8Z      -0.3964
      2 C4         25.1880   -1.5573  -45.3871 C.2         1 X8Z       0.1838
      3 C2         25.4268   -2.3972  -46.5733 C.3         1 X8Z       0.0548
      4 C1         25.5988   -3.9101  -46.2239 C.3         1 X8Z       0.0101
      5 S          27.0337   -4.2618  -45.1804 S.3         1 X8Z      -0.1756
      6 C3         24.2741   -2.2004  -47.5991 C.3         1 X8Z      -0.0446
      7 N          25.9209   -0.5013  -44.9823 N.am        1 X8Z      -0.2572
      8 C8         27.1479   -0.0247  -45.5754 C.3         1 X8Z       0.0971
      9 C9         28.2453   -1.0197  -45.6570 C.2         1 X8Z       0.0603
     10 O3         28.7109   -1.6471  -44.5536 O.co2       1 X8Z      -0.5666
     11 O2         28.8731   -1.2423  -46.8340 O.co2       1 X8Z      -0.5666
     12 C5         25.4811    0.3628  -43.9159 C.3         1 X8Z       0.0362
     13 C6         26.2892    1.6607  -44.0554 C.3         1 X8Z      -0.0288
     14 C7         27.5851    1.1918  -44.7183 C.3         1 X8Z      -0.0159
     15 H1         26.3343   -2.0896  -47.0904 H           1 X8Z       0.0543
     16 H2         25.7121   -4.4929  -47.1417 H           1 X8Z       0.0401
     17 H3         24.7121   -4.2789  -45.7005 H           1 X8Z       0.0401
     18 H4         27.8992   -3.6262  -46.0159 H           1 X8Z       0.1018
     19 H5         24.1628   -1.1428  -47.8463 H           1 X8Z       0.0257
     20 H6         23.3268   -2.5673  -47.1969 H           1 X8Z       0.0257
     21 H7         24.4872   -2.7380  -48.5254 H           1 X8Z       0.0257
     22 H8         26.9171    0.3246  -46.5883 H           1 X8Z       0.0728
     23 H9         25.6839   -0.1203  -42.9570 H           1 X8Z       0.0524
     24 H10        24.4160    0.6052  -43.9816 H           1 X8Z       0.0524
     25 H11        26.4698    2.1346  -43.0873 H           1 X8Z       0.0286
     26 H12        25.7685    2.3640  -44.7136 H           1 X8Z       0.0286
     27 H13        28.0309    1.9866  -45.3254 H           1 X8Z       0.0306
     28 H14        28.2963    0.9088  -43.9331 H           1 X8Z       0.0306
@<TRIPOS>BOND
     1     1     2   2
     2     2     3   1
     3     2     7  am
     4     3     4   1
     5     3     6   1
     6     4     5   1
     7     7     8   1
     8     7    12   1
     9     8     9   1
    10     8    14   1
    11     9    10  ar
    12     9    11  ar
    13    12    13   1
    14    13    14   1
    15     3    15   1
    16     4    16   1
    17     4    17   1
    18     5    18   1
    19     6    19   1
    20     6    20   1
    21     6    21   1
    22     8    22   1
    23    12    23   1
    24    12    24   1
    25    13    25   1
    26    13    26   1
    27    14    27   1
    28    14    28   1
@<TRIPOS>SUBSTRUCTURE
     1  X8Z      2

