@<TRIPOS>MOLECULE
2x8z_ligand_052
    28    28
SMALL
GAST_HUCK
****
This file was generated by PARSER (from files_GN.cpp)

@<TRIPOS>ATOM
      1 O1         29.2064    5.0910  -46.4294 O.2         1 X8Z      -0.3964
      2 C4         29.9280    5.6120  -45.5880 C.2         1 X8Z       0.1838
      3 C2         30.6291    6.8358  -46.0127 C.3         1 X8Z       0.0548
      4 C1         31.7947    6.5345  -47.0114 C.3         1 X8Z       0.0101
      5 S          31.2926    6.0512  -48.6856 S.3         1 X8Z      -0.1756
      6 C3         29.6376    7.9235  -46.5201 C.3         1 X8Z      -0.0446
      7 N          30.0267    5.0226  -44.3777 N.am        1 X8Z      -0.2572
      8 C8         29.2721    3.8540  -43.9830 C.3         1 X8Z       0.0971
      9 C9         27.8021    3.9869  -44.1206 C.2         1 X8Z       0.0603
     10 O3         27.1504    5.0151  -43.5322 O.co2       1 X8Z      -0.5666
     11 O2         27.1326    3.2048  -45.0000 O.co2       1 X8Z      -0.5666
     12 C5         30.9661    5.4152  -43.3619 C.3         1 X8Z       0.0362
     13 C6         31.0551    4.2257  -42.3950 C.3         1 X8Z      -0.0288
     14 C7         29.6794    3.5669  -42.5196 C.3         1 X8Z      -0.0159
     15 H1         31.1050    7.2900  -45.1438 H           1 X8Z       0.0543
     16 H2         32.4212    5.7378  -46.6047 H           1 X8Z       0.0401
     17 H3         32.4160    7.4246  -47.0972 H           1 X8Z       0.0401
     18 H4         32.5567    6.0983  -49.1948 H           1 X8Z       0.1018
     19 H5         28.9047    8.1571  -45.7429 H           1 X8Z       0.0257
     20 H6         29.0990    7.5969  -47.4163 H           1 X8Z       0.0257
     21 H7         30.1697    8.8448  -46.7581 H           1 X8Z       0.0257
     22 H8         29.6031    3.0156  -44.5984 H           1 X8Z       0.0728
     23 H9         30.6042    6.3100  -42.8434 H           1 X8Z       0.0524
     24 H10        31.9610    5.6113  -43.7721 H           1 X8Z       0.0524
     25 H11        31.2718    4.5427  -41.3722 H           1 X8Z       0.0286
     26 H12        31.8342    3.5310  -42.7280 H           1 X8Z       0.0286
     27 H13        29.7281    2.4972  -42.3132 H           1 X8Z       0.0306
     28 H14        28.9974    4.0310  -41.8005 H           1 X8Z       0.0306
@<TRIPOS>BOND
     1     1     2   2
     2     2     3   1
     3     2     7  am
     4     3     4   1
     5     3     6   1
     6     4     5   1
     7     7     8   1
     8     7    12   1
     9     8     9   1
    10     8    14   1
    11     9    10  ar
    12     9    11  ar
    13    12    13   1
    14    13    14   1
    15     3    15   1
    16     4    16   1
    17     4    17   1
    18     5    18   1
    19     6    19   1
    20     6    20   1
    21     6    21   1
    22     8    22   1
    23    12    23   1
    24    12    24   1
    25    13    25   1
    26    13    26   1
    27    14    27   1
    28    14    28   1
@<TRIPOS>SUBSTRUCTURE
     1  X8Z      2

