@<TRIPOS>MOLECULE
2x8z_ligand_088
    28    28
SMALL
GAST_HUCK
****
This file was generated by PARSER (from files_GN.cpp)

@<TRIPOS>ATOM
      1 O1         32.2606    9.0797  -38.9685 O.2         1 X8Z      -0.3964
      2 C4         31.2864    8.4069  -39.2986 C.2         1 X8Z       0.1838
      3 C2         30.9328    7.3284  -38.3624 C.3         1 X8Z       0.0548
      4 C1         32.0841    6.2736  -38.2980 C.3         1 X8Z       0.0101
      5 S          31.6496    4.7080  -37.5035 S.3         1 X8Z      -0.1756
      6 C3         30.5537    7.9179  -36.9726 C.3         1 X8Z      -0.0446
      7 N          30.6442    8.7070  -40.4407 N.am        1 X8Z      -0.2572
      8 C8         29.5772    7.9498  -41.0515 C.3         1 X8Z       0.0971
      9 C9         29.9594    6.5490  -41.3943 C.2         1 X8Z       0.0603
     10 O3         29.1690    5.5153  -41.0269 O.co2       1 X8Z      -0.5666
     11 O2         31.1622    6.2824  -41.9358 O.co2       1 X8Z      -0.5666
     12 C5         30.9318    9.9085  -41.1830 C.3         1 X8Z       0.0362
     13 C6         29.7041   10.1437  -42.0723 C.3         1 X8Z      -0.0288
     14 C7         29.1828    8.7272  -42.3308 C.3         1 X8Z      -0.0159
     15 H1         30.0382    6.8070  -38.7051 H           1 X8Z       0.0543
     16 H2         32.9515    6.6938  -37.7856 H           1 X8Z       0.0401
     17 H3         32.3955    6.0151  -39.3126 H           1 X8Z       0.0401
     18 H4         31.5592    5.2520  -36.2532 H           1 X8Z       0.1018
     19 H5         29.8040    8.7068  -37.0837 H           1 X8Z       0.0257
     20 H6         31.4312    8.3407  -36.4770 H           1 X8Z       0.0257
     21 H7         30.1278    7.1482  -36.3269 H           1 X8Z       0.0257
     22 H8         28.7178    7.9394  -40.3757 H           1 X8Z       0.0728
     23 H9         31.8268    9.7591  -41.7901 H           1 X8Z       0.0524
     24 H10        31.0754   10.7738  -40.5334 H           1 X8Z       0.0524
     25 H11        29.9641   10.6611  -42.9979 H           1 X8Z       0.0286
     26 H12        28.9546   10.7252  -41.5306 H           1 X8Z       0.0286
     27 H13        28.1008    8.7250  -42.4879 H           1 X8Z       0.0306
     28 H14        29.6681    8.3274  -43.2278 H           1 X8Z       0.0306
@<TRIPOS>BOND
     1     1     2   2
     2     2     3   1
     3     2     7  am
     4     3     4   1
     5     3     6   1
     6     4     5   1
     7     7     8   1
     8     7    12   1
     9     8     9   1
    10     8    14   1
    11     9    10  ar
    12     9    11  ar
    13    12    13   1
    14    13    14   1
    15     3    15   1
    16     4    16   1
    17     4    17   1
    18     5    18   1
    19     6    19   1
    20     6    20   1
    21     6    21   1
    22     8    22   1
    23    12    23   1
    24    12    24   1
    25    13    25   1
    26    13    26   1
    27    14    27   1
    28    14    28   1
@<TRIPOS>SUBSTRUCTURE
     1  X8Z      2

