@<TRIPOS>MOLECULE
2x8z_ligand_060
    28    28
SMALL
GAST_HUCK
****
This file was generated by PARSER (from files_GN.cpp)

@<TRIPOS>ATOM
      1 O1         26.2395    9.7027  -38.5974 O.2         1 X8Z      -0.3964
      2 C4         27.4198    9.9341  -38.3308 C.2         1 X8Z       0.1838
      3 C2         27.6640   10.0452  -36.8707 C.3         1 X8Z       0.0548
      4 C1         28.7659    9.1132  -36.2829 C.3         1 X8Z       0.0101
      5 S          28.2981    7.3651  -36.3311 S.3         1 X8Z      -0.1756
      6 C3         27.8086   11.5333  -36.4066 C.3         1 X8Z      -0.0446
      7 N          28.2723   10.0649  -39.3791 N.am        1 X8Z      -0.2572
      8 C8         29.6879   10.3700  -39.3854 C.3         1 X8Z       0.0971
      9 C9         30.1191   11.5939  -38.6411 C.2         1 X8Z       0.0603
     10 O3         29.7740   12.8295  -39.0843 O.co2       1 X8Z      -0.5666
     11 O2         31.0952   11.5063  -37.6981 O.co2       1 X8Z      -0.5666
     12 C5         27.8152    9.7995  -40.7239 C.3         1 X8Z       0.0362
     13 C6         29.0620    9.6472  -41.6076 C.3         1 X8Z      -0.0288
     14 C7         30.0776   10.5204  -40.8810 C.3         1 X8Z      -0.0159
     15 H1         26.7571    9.7085  -36.3525 H           1 X8Z       0.0543
     16 H2         28.9640    9.3804  -35.2437 H           1 X8Z       0.0401
     17 H3         29.7076    9.2250  -36.8043 H           1 X8Z       0.0401
     18 H4         28.1522    7.2952  -34.9614 H           1 X8Z       0.1018
     19 H5         26.8750   12.0824  -36.6304 H           1 X8Z       0.0257
     20 H6         28.6493   12.0362  -36.9027 H           1 X8Z       0.0257
     21 H7         27.9686   11.5743  -35.3133 H           1 X8Z       0.0257
     22 H8         30.2202    9.4951  -38.9968 H           1 X8Z       0.0728
     23 H9         27.1841   10.6188  -41.0883 H           1 X8Z       0.0524
     24 H10        27.2456    8.8681  -40.7808 H           1 X8Z       0.0524
     25 H11        28.8993    9.9884  -42.6314 H           1 X8Z       0.0286
     26 H12        29.4043    8.6106  -41.6229 H           1 X8Z       0.0286
     27 H13        31.1045   10.2031  -41.0729 H           1 X8Z       0.0306
     28 H14        29.9568   11.5515  -41.2294 H           1 X8Z       0.0306
@<TRIPOS>BOND
     1     1     2   2
     2     2     3   1
     3     2     7  am
     4     3     4   1
     5     3     6   1
     6     4     5   1
     7     7     8   1
     8     7    12   1
     9     8     9   1
    10     8    14   1
    11     9    10  ar
    12     9    11  ar
    13    12    13   1
    14    13    14   1
    15     3    15   1
    16     4    16   1
    17     4    17   1
    18     5    18   1
    19     6    19   1
    20     6    20   1
    21     6    21   1
    22     8    22   1
    23    12    23   1
    24    12    24   1
    25    13    25   1
    26    13    26   1
    27    14    27   1
    28    14    28   1
@<TRIPOS>SUBSTRUCTURE
     1  X8Z      2

