@<TRIPOS>MOLECULE
2x8z_ligand_055
    28    28
SMALL
GAST_HUCK
****
This file was generated by PARSER (from files_GN.cpp)

@<TRIPOS>ATOM
      1 O1         31.3521    9.4981  -44.2223 O.2         1 X8Z      -0.3964
      2 C4         30.3946    9.0359  -43.6074 C.2         1 X8Z       0.1838
      3 C2         30.5080    9.1087  -42.1371 C.3         1 X8Z       0.0548
      4 C1         29.3421    9.8460  -41.4005 C.3         1 X8Z       0.0101
      5 S          28.5713   11.1815  -42.3557 S.3         1 X8Z      -0.1756
      6 C3         30.7971    7.7204  -41.4949 C.3         1 X8Z      -0.0446
      7 N          29.3532    8.5784  -44.3275 N.am        1 X8Z      -0.2572
      8 C8         29.2227    8.7888  -45.7554 C.3         1 X8Z       0.0971
      9 C9         29.2736   10.2148  -46.1605 C.2         1 X8Z       0.0603
     10 O3         28.3445   11.0955  -45.7274 O.co2       1 X8Z      -0.5666
     11 O2         30.2999   10.6834  -46.9092 O.co2       1 X8Z      -0.5666
     12 C5         28.2648    7.8035  -43.8075 C.3         1 X8Z       0.0362
     13 C6         27.5784    7.1639  -45.0290 C.3         1 X8Z      -0.0288
     14 C7         27.8676    8.1567  -46.1557 C.3         1 X8Z      -0.0159
     15 H1         31.3995    9.7126  -41.9046 H           1 X8Z       0.0543
     16 H2         29.7177   10.2788  -40.4670 H           1 X8Z       0.0401
     17 H3         28.5539    9.1468  -41.1243 H           1 X8Z       0.0401
     18 H4         29.6938   11.9495  -42.3453 H           1 X8Z       0.1018
     19 H5         31.5179    7.1616  -42.0998 H           1 X8Z       0.0257
     20 H6         29.8807    7.1272  -41.4046 H           1 X8Z       0.0257
     21 H7         31.2155    7.8537  -40.4922 H           1 X8Z       0.0257
     22 H8         30.0258    8.2383  -46.2596 H           1 X8Z       0.0728
     23 H9         27.5528    8.4490  -43.2841 H           1 X8Z       0.0524
     24 H10        28.6034    7.0052  -43.1375 H           1 X8Z       0.0524
     25 H11        26.5078    7.0365  -44.8568 H           1 X8Z       0.0286
     26 H12        28.0267    6.1927  -45.2570 H           1 X8Z       0.0286
     27 H13        27.9334    7.6557  -47.1252 H           1 X8Z       0.0306
     28 H14        27.0584    8.8954  -46.1931 H           1 X8Z       0.0306
@<TRIPOS>BOND
     1     1     2   2
     2     2     3   1
     3     2     7  am
     4     3     4   1
     5     3     6   1
     6     4     5   1
     7     7     8   1
     8     7    12   1
     9     8     9   1
    10     8    14   1
    11     9    10  ar
    12     9    11  ar
    13    12    13   1
    14    13    14   1
    15     3    15   1
    16     4    16   1
    17     4    17   1
    18     5    18   1
    19     6    19   1
    20     6    20   1
    21     6    21   1
    22     8    22   1
    23    12    23   1
    24    12    24   1
    25    13    25   1
    26    13    26   1
    27    14    27   1
    28    14    28   1
@<TRIPOS>SUBSTRUCTURE
     1  X8Z      2

