@<TRIPOS>MOLECULE
2x8z_ligand_025
    28    28
SMALL
GAST_HUCK
****
This file was generated by PARSER (from files_GN.cpp)

@<TRIPOS>ATOM
      1 O1         28.7119    8.5075  -41.8709 O.2         1 X8Z      -0.3964
      2 C4         29.0872    7.4645  -42.4006 C.2         1 X8Z       0.1838
      3 C2         28.1094    6.3626  -42.3704 C.3         1 X8Z       0.0548
      4 C1         27.7895    5.9581  -40.8953 C.3         1 X8Z       0.0101
      5 S          26.8495    4.4214  -40.7158 S.3         1 X8Z      -0.1756
      6 C3         26.8458    6.7393  -43.2009 C.3         1 X8Z      -0.0446
      7 N          30.3088    7.4354  -42.9703 N.am        1 X8Z      -0.2572
      8 C8         30.9668    6.2857  -43.5496 C.3         1 X8Z       0.0971
      9 C9         31.1652    5.1414  -42.6213 C.2         1 X8Z       0.0603
     10 O3         30.4016    4.0317  -42.7390 O.co2       1 X8Z      -0.5666
     11 O2         32.1431    5.1314  -41.6862 O.co2       1 X8Z      -0.5666
     12 C5         31.0744    8.6397  -43.1593 C.3         1 X8Z       0.0362
     13 C6         32.1279    8.3123  -44.2287 C.3         1 X8Z      -0.0288
     14 C7         32.3265    6.7997  -44.0896 C.3         1 X8Z      -0.0159
     15 H1         28.5215    5.4805  -42.8599 H           1 X8Z       0.0543
     16 H2         27.2449    6.7586  -40.3867 H           1 X8Z       0.0401
     17 H3         28.7290    5.8039  -40.3582 H           1 X8Z       0.0401
     18 H4         25.6674    4.9849  -41.0897 H           1 X8Z       0.1018
     19 H5         27.1349    7.0762  -44.2003 H           1 X8Z       0.0257
     20 H6         26.2787    7.5369  -42.7134 H           1 X8Z       0.0257
     21 H7         26.1910    5.8747  -43.3260 H           1 X8Z       0.0257
     22 H8         30.3684    5.9532  -44.4048 H           1 X8Z       0.0728
     23 H9         31.5455    8.9297  -42.2166 H           1 X8Z       0.0524
     24 H10        30.4603    9.4735  -43.5155 H           1 X8Z       0.0524
     25 H11        33.0539    8.8706  -44.0654 H           1 X8Z       0.0286
     26 H12        31.7383    8.5462  -45.2249 H           1 X8Z       0.0286
     27 H13        32.5800    6.3413  -45.0502 H           1 X8Z       0.0306
     28 H14        33.1479    6.6142  -43.3908 H           1 X8Z       0.0306
@<TRIPOS>BOND
     1     1     2   2
     2     2     3   1
     3     2     7  am
     4     3     4   1
     5     3     6   1
     6     4     5   1
     7     7     8   1
     8     7    12   1
     9     8     9   1
    10     8    14   1
    11     9    10  ar
    12     9    11  ar
    13    12    13   1
    14    13    14   1
    15     3    15   1
    16     4    16   1
    17     4    17   1
    18     5    18   1
    19     6    19   1
    20     6    20   1
    21     6    21   1
    22     8    22   1
    23    12    23   1
    24    12    24   1
    25    13    25   1
    26    13    26   1
    27    14    27   1
    28    14    28   1
@<TRIPOS>SUBSTRUCTURE
     1  X8Z      2

