@<TRIPOS>MOLECULE
2x8z_ligand_073
    28    28
SMALL
GAST_HUCK
****
This file was generated by PARSER (from files_GN.cpp)

@<TRIPOS>ATOM
      1 O1         25.2693    4.1868  -34.7413 O.2         1 X8Z      -0.3964
      2 C4         25.9277    4.9672  -35.4197 C.2         1 X8Z       0.1838
      3 C2         25.1562    6.0450  -36.0657 C.3         1 X8Z       0.0548
      4 C1         24.3240    5.5165  -37.2803 C.3         1 X8Z       0.0101
      5 S          22.8863    4.4759  -36.9191 S.3         1 X8Z      -0.1756
      6 C3         24.3034    6.8738  -35.0598 C.3         1 X8Z      -0.0446
      7 N          27.2663    4.8047  -35.4844 N.am        1 X8Z      -0.2572
      8 C8         28.1825    5.5363  -36.3272 C.3         1 X8Z       0.0971
      9 C9         27.8600    5.4737  -37.7738 C.2         1 X8Z       0.0603
     10 O3         28.6585    6.1257  -38.6489 O.co2       1 X8Z      -0.5666
     11 O2         27.1004    4.4601  -38.2513 O.co2       1 X8Z      -0.5666
     12 C5         27.9505    3.8479  -34.6561 C.3         1 X8Z       0.0362
     13 C6         29.4382    4.2261  -34.7096 C.3         1 X8Z      -0.0288
     14 C7         29.5827    4.9288  -36.0597 C.3         1 X8Z      -0.0159
     15 H1         25.8473    6.7792  -36.4884 H           1 X8Z       0.0543
     16 H2         24.9832    4.9550  -37.9635 H           1 X8Z       0.0401
     17 H3         23.9364    6.3652  -37.8430 H           1 X8Z       0.0401
     18 H4         23.6220    3.3999  -36.5094 H           1 X8Z       0.1018
     19 H5         24.9445    7.2884  -34.2718 H           1 X8Z       0.0257
     20 H6         23.5295    6.2544  -34.5886 H           1 X8Z       0.0257
     21 H7         23.8140    7.7119  -35.5712 H           1 X8Z       0.0257
     22 H8         28.1935    6.5847  -36.0068 H           1 X8Z       0.0728
     23 H9         27.7871    2.8445  -35.0519 H           1 X8Z       0.0524
     24 H10        27.6103    3.8876  -33.6181 H           1 X8Z       0.0524
     25 H11        30.0790    3.3446  -34.6284 H           1 X8Z       0.0286
     26 H12        29.6791    4.9177  -33.8987 H           1 X8Z       0.0286
     27 H13        30.3584    5.6976  -36.0249 H           1 X8Z       0.0306
     28 H14        29.8637    4.1877  -36.8151 H           1 X8Z       0.0306
@<TRIPOS>BOND
     1     1     2   2
     2     2     3   1
     3     2     7  am
     4     3     4   1
     5     3     6   1
     6     4     5   1
     7     7     8   1
     8     7    12   1
     9     8     9   1
    10     8    14   1
    11     9    10  ar
    12     9    11  ar
    13    12    13   1
    14    13    14   1
    15     3    15   1
    16     4    16   1
    17     4    17   1
    18     5    18   1
    19     6    19   1
    20     6    20   1
    21     6    21   1
    22     8    22   1
    23    12    23   1
    24    12    24   1
    25    13    25   1
    26    13    26   1
    27    14    27   1
    28    14    28   1
@<TRIPOS>SUBSTRUCTURE
     1  X8Z      2

