@<TRIPOS>MOLECULE
2x8z_ligand_020
    28    28
SMALL
GAST_HUCK
****
This file was generated by PARSER (from files_GN.cpp)

@<TRIPOS>ATOM
      1 O1         28.6894    5.7491  -44.6968 O.2         1 X8Z      -0.3964
      2 C4         29.6135    5.9126  -43.9059 C.2         1 X8Z       0.1838
      3 C2         30.8876    5.3111  -44.3701 C.3         1 X8Z       0.0548
      4 C1         32.1690    6.1964  -44.3060 C.3         1 X8Z       0.0101
      5 S          31.9329    7.8678  -44.9574 S.3         1 X8Z      -0.1756
      6 C3         31.1386    3.8943  -43.7853 C.3         1 X8Z      -0.0446
      7 N          29.3538    6.6448  -42.8011 N.am        1 X8Z      -0.2572
      8 C8         30.1985    6.8737  -41.6492 C.3         1 X8Z       0.0971
      9 C9         30.6226    5.6480  -40.9424 C.2         1 X8Z       0.0603
     10 O3         29.6944    4.7780  -40.4727 O.co2       1 X8Z      -0.5666
     11 O2         31.9234    5.3508  -40.7417 O.co2       1 X8Z      -0.5666
     12 C5         28.1247    7.3941  -42.6815 C.3         1 X8Z       0.0362
     13 C6         28.3497    8.4421  -41.5873 C.3         1 X8Z      -0.0288
     14 C7         29.3792    7.7659  -40.6794 C.3         1 X8Z      -0.0159
     15 H1         30.7770    5.1215  -45.4452 H           1 X8Z       0.0543
     16 H2         32.9617    5.7256  -44.8905 H           1 X8Z       0.0401
     17 H3         32.5342    6.2644  -43.2877 H           1 X8Z       0.0401
     18 H4         31.7866    7.4516  -46.2455 H           1 X8Z       0.1018
     19 H5         30.2579    3.2630  -43.9100 H           1 X8Z       0.0257
     20 H6         31.4098    3.9258  -42.7300 H           1 X8Z       0.0257
     21 H7         31.9539    3.4066  -44.3204 H           1 X8Z       0.0257
     22 H8         31.0706    7.4568  -41.9507 H           1 X8Z       0.0728
     23 H9         27.3051    6.7216  -42.4082 H           1 X8Z       0.0524
     24 H10        27.8665    7.9159  -43.6089 H           1 X8Z       0.0524
     25 H11        27.4289    8.6849  -41.0517 H           1 X8Z       0.0286
     26 H12        28.7723    9.3582  -42.0140 H           1 X8Z       0.0286
     27 H13        30.0094    8.5038  -40.1778 H           1 X8Z       0.0306
     28 H14        28.8460    7.1826  -39.9207 H           1 X8Z       0.0306
@<TRIPOS>BOND
     1     1     2   2
     2     2     3   1
     3     2     7  am
     4     3     4   1
     5     3     6   1
     6     4     5   1
     7     7     8   1
     8     7    12   1
     9     8     9   1
    10     8    14   1
    11     9    10  ar
    12     9    11  ar
    13    12    13   1
    14    13    14   1
    15     3    15   1
    16     4    16   1
    17     4    17   1
    18     5    18   1
    19     6    19   1
    20     6    20   1
    21     6    21   1
    22     8    22   1
    23    12    23   1
    24    12    24   1
    25    13    25   1
    26    13    26   1
    27    14    27   1
    28    14    28   1
@<TRIPOS>SUBSTRUCTURE
     1  X8Z      2

