@<TRIPOS>MOLECULE
2x8z_ligand_081
    28    28
SMALL
GAST_HUCK
****
This file was generated by PARSER (from files_GN.cpp)

@<TRIPOS>ATOM
      1 O1         25.6803    6.5916  -39.6732 O.2         1 X8Z      -0.3964
      2 C4         26.8650    6.6706  -39.9960 C.2         1 X8Z       0.1838
      3 C2         27.0997    6.6453  -41.4564 C.3         1 X8Z       0.0548
      4 C1         28.2525    7.5363  -42.0215 C.3         1 X8Z       0.0101
      5 S          28.1785    9.2842  -41.5503 S.3         1 X8Z      -0.1756
      6 C3         27.1922    5.1880  -41.9921 C.3         1 X8Z      -0.0446
      7 N          27.7729    6.7410  -39.0019 N.am        1 X8Z      -0.2572
      8 C8         27.4115    6.8565  -37.6007 C.3         1 X8Z       0.0971
      9 C9         26.5148    7.9793  -37.2282 C.2         1 X8Z       0.0603
     10 O3         26.1484    8.1415  -35.9333 O.co2       1 X8Z      -0.5666
     11 O2         26.0415    8.8458  -38.1552 O.co2       1 X8Z      -0.5666
     12 C5         29.1916    6.5868  -39.1658 C.3         1 X8Z       0.0362
     13 C6         29.7455    6.2742  -37.7643 C.3         1 X8Z      -0.0288
     14 C7         28.7515    6.9768  -36.8376 C.3         1 X8Z      -0.0159
     15 H1         26.2020    7.0584  -41.9349 H           1 X8Z       0.0543
     16 H2         28.2191    7.5029  -43.1163 H           1 X8Z       0.0401
     17 H3         29.2245    7.1422  -41.7180 H           1 X8Z       0.0401
     18 H4         26.8189    9.3446  -41.5716 H           1 X8Z       0.1018
     19 H5         26.3088    4.6151  -41.6925 H           1 X8Z       0.0257
     20 H6         28.0836    4.6825  -41.6172 H           1 X8Z       0.0257
     21 H7         27.2315    5.1958  -43.0862 H           1 X8Z       0.0257
     22 H8         26.9216    5.9230  -37.3060 H           1 X8Z       0.0728
     23 H9         29.6333    7.5129  -39.5412 H           1 X8Z       0.0524
     24 H10        29.4509    5.7611  -39.8312 H           1 X8Z       0.0524
     25 H11        30.7620    6.6478  -37.6331 H           1 X8Z       0.0286
     26 H12        29.7299    5.1934  -37.5823 H           1 X8Z       0.0286
     27 H13        28.7123    6.4948  -35.8534 H           1 X8Z       0.0306
     28 H14        29.0550    8.0251  -36.7074 H           1 X8Z       0.0306
@<TRIPOS>BOND
     1     1     2   2
     2     2     3   1
     3     2     7  am
     4     3     4   1
     5     3     6   1
     6     4     5   1
     7     7     8   1
     8     7    12   1
     9     8     9   1
    10     8    14   1
    11     9    10  ar
    12     9    11  ar
    13    12    13   1
    14    13    14   1
    15     3    15   1
    16     4    16   1
    17     4    17   1
    18     5    18   1
    19     6    19   1
    20     6    20   1
    21     6    21   1
    22     8    22   1
    23    12    23   1
    24    12    24   1
    25    13    25   1
    26    13    26   1
    27    14    27   1
    28    14    28   1
@<TRIPOS>SUBSTRUCTURE
     1  X8Z      2

