@<TRIPOS>MOLECULE
2x8z_ligand_049
    28    28
SMALL
GAST_HUCK
****
This file was generated by PARSER (from files_GN.cpp)

@<TRIPOS>ATOM
      1 O1         29.2303   11.6856  -44.7648 O.2         1 X8Z      -0.3964
      2 C4         28.3920   10.7866  -44.8039 C.2         1 X8Z       0.1838
      3 C2         26.9978   11.2596  -44.6437 C.3         1 X8Z       0.0548
      4 C1         26.0927   11.0315  -45.8935 C.3         1 X8Z       0.0101
      5 S          26.7501   11.7713  -47.4099 S.3         1 X8Z      -0.1756
      6 C3         26.2966   10.7917  -43.3379 C.3         1 X8Z      -0.0446
      7 N          28.8390    9.5424  -45.0852 N.am        1 X8Z      -0.2572
      8 C8         28.1179    8.2902  -45.0151 C.3         1 X8Z       0.0971
      9 C9         27.6617    7.9150  -43.6595 C.2         1 X8Z       0.0603
     10 O3         28.5427    7.8202  -42.6390 O.co2       1 X8Z      -0.5666
     11 O2         26.4326    7.3779  -43.4901 O.co2       1 X8Z      -0.5666
     12 C5         30.1685    9.3354  -45.6031 C.3         1 X8Z       0.0362
     13 C6         30.1250    7.9929  -46.3439 C.3         1 X8Z      -0.0288
     14 C7         29.0834    7.2021  -45.5531 C.3         1 X8Z      -0.0159
     15 H1         27.0285   12.3534  -44.5370 H           1 X8Z       0.0543
     16 H2         25.1144   11.4789  -45.7112 H           1 X8Z       0.0401
     17 H3         25.9249    9.9722  -46.0699 H           1 X8Z       0.0401
     18 H4         25.8723   11.1072  -48.2099 H           1 X8Z       0.1018
     19 H5         27.0025   10.7581  -42.5042 H           1 X8Z       0.0257
     20 H6         25.8343    9.8142  -43.4608 H           1 X8Z       0.0257
     21 H7         25.4981   11.4874  -43.0707 H           1 X8Z       0.0257
     22 H8         27.2636    8.3214  -45.6894 H           1 X8Z       0.0728
     23 H9         30.8885    9.3039  -44.7799 H           1 X8Z       0.0524
     24 H10        30.4682   10.1139  -46.3114 H           1 X8Z       0.0524
     25 H11        31.1002    7.4984  -46.3544 H           1 X8Z       0.0286
     26 H12        29.7800    8.1384  -47.3724 H           1 X8Z       0.0286
     27 H13        28.5664    6.4796  -46.1905 H           1 X8Z       0.0306
     28 H14        29.5929    6.6571  -44.7509 H           1 X8Z       0.0306
@<TRIPOS>BOND
     1     1     2   2
     2     2     3   1
     3     2     7  am
     4     3     4   1
     5     3     6   1
     6     4     5   1
     7     7     8   1
     8     7    12   1
     9     8     9   1
    10     8    14   1
    11     9    10  ar
    12     9    11  ar
    13    12    13   1
    14    13    14   1
    15     3    15   1
    16     4    16   1
    17     4    17   1
    18     5    18   1
    19     6    19   1
    20     6    20   1
    21     6    21   1
    22     8    22   1
    23    12    23   1
    24    12    24   1
    25    13    25   1
    26    13    26   1
    27    14    27   1
    28    14    28   1
@<TRIPOS>SUBSTRUCTURE
     1  X8Z      2

