@<TRIPOS>MOLECULE
2x8z_ligand_084
    28    28
SMALL
GAST_HUCK
****
This file was generated by PARSER (from files_GN.cpp)

@<TRIPOS>ATOM
      1 O1         29.7217    7.6903  -43.6715 O.2         1 X8Z      -0.3964
      2 C4         28.8560    7.7963  -44.5351 C.2         1 X8Z       0.1838
      3 C2         28.8877    6.7734  -45.5904 C.3         1 X8Z       0.0548
      4 C1         30.2092    6.8644  -46.4309 C.3         1 X8Z       0.0101
      5 S          29.9758    6.4486  -48.1728 S.3         1 X8Z      -0.1756
      6 C3         28.6503    5.3512  -45.0002 C.3         1 X8Z      -0.0446
      7 N          27.9821    8.8192  -44.4598 N.am        1 X8Z      -0.2572
      8 C8         27.9272    9.7593  -43.3635 C.3         1 X8Z       0.0971
      9 C9         27.8095    9.1439  -42.0187 C.2         1 X8Z       0.0603
     10 O3         26.9705    8.1056  -41.8066 O.co2       1 X8Z      -0.5666
     11 O2         28.6133    9.5403  -41.0062 O.co2       1 X8Z      -0.5666
     12 C5         27.0534    9.1645  -45.5031 C.3         1 X8Z       0.0362
     13 C6         26.5345   10.5725  -45.1744 C.3         1 X8Z      -0.0288
     14 C7         26.7078   10.6669  -43.6560 C.3         1 X8Z      -0.0159
     15 H1         28.0410    6.9262  -46.2602 H           1 X8Z       0.0543
     16 H2         30.9612    6.1830  -46.0274 H           1 X8Z       0.0401
     17 H3         30.6453    7.8705  -46.4011 H           1 X8Z       0.0401
     18 H4         29.3763    7.6410  -48.4421 H           1 X8Z       0.1018
     19 H5         27.7392    5.3308  -44.3974 H           1 X8Z       0.0257
     20 H6         29.4883    5.0435  -44.3719 H           1 X8Z       0.0257
     21 H7         28.5364    4.6196  -45.8045 H           1 X8Z       0.0257
     22 H8         28.8368   10.3682  -43.3995 H           1 X8Z       0.0728
     23 H9         26.2288    8.4467  -45.5201 H           1 X8Z       0.0524
     24 H10        27.5340    9.1890  -46.4860 H           1 X8Z       0.0524
     25 H11        25.4922   10.7039  -45.4787 H           1 X8Z       0.0286
     26 H12        27.1520   11.3292  -45.6680 H           1 X8Z       0.0286
     27 H13        26.8823   11.6972  -43.3343 H           1 X8Z       0.0306
     28 H14        25.7956   10.2960  -43.1774 H           1 X8Z       0.0306
@<TRIPOS>BOND
     1     1     2   2
     2     2     3   1
     3     2     7  am
     4     3     4   1
     5     3     6   1
     6     4     5   1
     7     7     8   1
     8     7    12   1
     9     8     9   1
    10     8    14   1
    11     9    10  ar
    12     9    11  ar
    13    12    13   1
    14    13    14   1
    15     3    15   1
    16     4    16   1
    17     4    17   1
    18     5    18   1
    19     6    19   1
    20     6    20   1
    21     6    21   1
    22     8    22   1
    23    12    23   1
    24    12    24   1
    25    13    25   1
    26    13    26   1
    27    14    27   1
    28    14    28   1
@<TRIPOS>SUBSTRUCTURE
     1  X8Z      2

