@<TRIPOS>MOLECULE
2x8z_ligand_039
    28    28
SMALL
GAST_HUCK
****
This file was generated by PARSER (from files_GN.cpp)

@<TRIPOS>ATOM
      1 O1         30.3675    6.3311  -36.5381 O.2         1 X8Z      -0.3964
      2 C4         29.1378    6.3318  -36.5286 C.2         1 X8Z       0.1838
      3 C2         28.5490    5.0438  -36.0968 C.3         1 X8Z       0.0548
      4 C1         28.0840    5.0820  -34.6061 C.3         1 X8Z       0.0101
      5 S          27.5558    3.4619  -33.9775 S.3         1 X8Z      -0.1756
      6 C3         27.4788    4.4416  -37.0482 C.3         1 X8Z      -0.0446
      7 N          28.5323    7.5032  -36.8250 N.am        1 X8Z      -0.2572
      8 C8         27.1252    7.7566  -37.0392 C.3         1 X8Z       0.0971
      9 C9         26.5561    7.1344  -38.2649 C.2         1 X8Z       0.0603
     10 O3         27.3660    6.7079  -39.2635 O.co2       1 X8Z      -0.5666
     11 O2         25.2256    7.1277  -38.4676 O.co2       1 X8Z      -0.5666
     12 C5         29.2784    8.7394  -36.8905 C.3         1 X8Z       0.0362
     13 C6         28.2743    9.8514  -36.5633 C.3         1 X8Z      -0.0288
     14 C7         26.9760    9.2990  -37.1501 C.3         1 X8Z      -0.0159
     15 H1         29.3562    4.2973  -36.1076 H           1 X8Z       0.0543
     16 H2         27.2599    5.7869  -34.4818 H           1 X8Z       0.0401
     17 H3         28.9089    5.4196  -33.9668 H           1 X8Z       0.0401
     18 H4         26.3054    3.8794  -33.6530 H           1 X8Z       0.1018
     19 H5         27.7742    4.5575  -38.0957 H           1 X8Z       0.0257
     20 H6         26.4976    4.8909  -36.8839 H           1 X8Z       0.0257
     21 H7         27.3765    3.3676  -36.8580 H           1 X8Z       0.0257
     22 H8         26.5546    7.4221  -36.1715 H           1 X8Z       0.0728
     23 H9         29.6869    8.8717  -37.8993 H           1 X8Z       0.0524
     24 H10        30.0978    8.7839  -36.1647 H           1 X8Z       0.0524
     25 H11        28.5554   10.8046  -37.0151 H           1 X8Z       0.0286
     26 H12        28.1809    9.9747  -35.4789 H           1 X8Z       0.0286
     27 H13        26.1132    9.6619  -36.5893 H           1 X8Z       0.0306
     28 H14        26.8902    9.6442  -38.1886 H           1 X8Z       0.0306
@<TRIPOS>BOND
     1     1     2   2
     2     2     3   1
     3     2     7  am
     4     3     4   1
     5     3     6   1
     6     4     5   1
     7     7     8   1
     8     7    12   1
     9     8     9   1
    10     8    14   1
    11     9    10  ar
    12     9    11  ar
    13    12    13   1
    14    13    14   1
    15     3    15   1
    16     4    16   1
    17     4    17   1
    18     5    18   1
    19     6    19   1
    20     6    20   1
    21     6    21   1
    22     8    22   1
    23    12    23   1
    24    12    24   1
    25    13    25   1
    26    13    26   1
    27    14    27   1
    28    14    28   1
@<TRIPOS>SUBSTRUCTURE
     1  X8Z      2

