@<TRIPOS>MOLECULE
2x8z_ligand_034
    28    28
SMALL
GAST_HUCK
****
This file was generated by PARSER (from files_GN.cpp)

@<TRIPOS>ATOM
      1 O1         30.2523    5.0120  -36.8536 O.2         1 X8Z      -0.3964
      2 C4         29.7272    5.9795  -37.3957 C.2         1 X8Z       0.1838
      3 C2         30.4633    6.5441  -38.5395 C.3         1 X8Z       0.0548
      4 C1         31.8227    7.1761  -38.1111 C.3         1 X8Z       0.0101
      5 S          31.6478    8.6118  -37.0201 S.3         1 X8Z      -0.1756
      6 C3         30.6796    5.4718  -39.6439 C.3         1 X8Z      -0.0446
      7 N          28.5727    6.4481  -36.8843 N.am        1 X8Z      -0.2572
      8 C8         27.8469    5.8091  -35.8074 C.3         1 X8Z       0.0971
      9 C9         27.4886    4.3940  -36.0678 C.2         1 X8Z       0.0603
     10 O3         27.9400    3.4073  -35.2620 O.co2       1 X8Z      -0.5666
     11 O2         26.7368    4.0528  -37.1374 O.co2       1 X8Z      -0.5666
     12 C5         27.9568    7.6851  -37.2790 C.3         1 X8Z       0.0362
     13 C6         26.9571    8.0324  -36.1649 C.3         1 X8Z      -0.0288
     14 C7         26.5730    6.6655  -35.5964 C.3         1 X8Z      -0.0159
     15 H1         29.8863    7.3363  -39.0192 H           1 X8Z       0.0543
     16 H2         32.3547    7.5252  -38.9994 H           1 X8Z       0.0401
     17 H3         32.4585    6.4335  -37.6245 H           1 X8Z       0.0401
     18 H4         31.3308    7.8881  -35.9113 H           1 X8Z       0.1018
     19 H5         29.7236    5.0421  -39.9507 H           1 X8Z       0.0257
     20 H6         31.3286    4.6668  -39.2921 H           1 X8Z       0.0257
     21 H7         31.1461    5.9196  -40.5232 H           1 X8Z       0.0257
     22 H8         28.4644    5.8680  -34.9015 H           1 X8Z       0.0728
     23 H9         27.4443    7.5556  -38.2374 H           1 X8Z       0.0524
     24 H10        28.6789    8.5020  -37.3630 H           1 X8Z       0.0524
     25 H11        26.0916    8.5767  -36.5505 H           1 X8Z       0.0286
     26 H12        27.4449    8.6335  -35.3909 H           1 X8Z       0.0286
     27 H13        26.2997    6.7332  -34.5402 H           1 X8Z       0.0306
     28 H14        25.7147    6.2814  -36.1586 H           1 X8Z       0.0306
@<TRIPOS>BOND
     1     1     2   2
     2     2     3   1
     3     2     7  am
     4     3     4   1
     5     3     6   1
     6     4     5   1
     7     7     8   1
     8     7    12   1
     9     8     9   1
    10     8    14   1
    11     9    10  ar
    12     9    11  ar
    13    12    13   1
    14    13    14   1
    15     3    15   1
    16     4    16   1
    17     4    17   1
    18     5    18   1
    19     6    19   1
    20     6    20   1
    21     6    21   1
    22     8    22   1
    23    12    23   1
    24    12    24   1
    25    13    25   1
    26    13    26   1
    27    14    27   1
    28    14    28   1
@<TRIPOS>SUBSTRUCTURE
     1  X8Z      2

