@<TRIPOS>MOLECULE
2x8z_ligand_007
    28    28
SMALL
GAST_HUCK
****
This file was generated by PARSER (from files_GN.cpp)

@<TRIPOS>ATOM
      1 O1         30.9519    7.0998  -43.0177 O.2         1 X8Z      -0.3964
      2 C4         30.1383    6.7627  -43.8733 C.2         1 X8Z       0.1838
      3 C2         29.8145    7.7723  -44.8983 C.3         1 X8Z       0.0548
      4 C1         29.9367    9.2500  -44.3878 C.3         1 X8Z       0.0101
      5 S          29.3993   10.5330  -45.5473 S.3         1 X8Z      -0.1756
      6 C3         30.6845    7.5246  -46.1644 C.3         1 X8Z      -0.0446
      7 N          29.6810    5.4934  -43.8501 N.am        1 X8Z      -0.2572
      8 C8         30.1181    4.5007  -42.8905 C.3         1 X8Z       0.0971
      9 C9         31.5877    4.2626  -42.8661 C.2         1 X8Z       0.0603
     10 O3         32.3353    4.6755  -41.8153 O.co2       1 X8Z      -0.5666
     11 O2         32.2388    3.8167  -43.9632 O.co2       1 X8Z      -0.5666
     12 C5         28.6533    4.9843  -44.7208 C.3         1 X8Z       0.0362
     13 C6         28.1518    3.6833  -44.0706 C.3         1 X8Z      -0.0288
     14 C7         29.3515    3.2010  -43.2487 C.3         1 X8Z      -0.0159
     15 H1         28.7682    7.6607  -45.1804 H           1 X8Z       0.0543
     16 H2         30.9753    9.4746  -44.1295 H           1 X8Z       0.0401
     17 H3         29.3336    9.3667  -43.4847 H           1 X8Z       0.0401
     18 H4         28.1316   10.0471  -45.6482 H           1 X8Z       0.1018
     19 H5         30.5749    6.5014  -46.5316 H           1 X8Z       0.0257
     20 H6         31.7401    7.6974  -45.9424 H           1 X8Z       0.0257
     21 H7         30.3852    8.1948  -46.9719 H           1 X8Z       0.0257
     22 H8         29.7967    4.8309  -41.8993 H           1 X8Z       0.0728
     23 H9         29.0675    4.7776  -45.7121 H           1 X8Z       0.0524
     24 H10        27.7994    5.6584  -44.8227 H           1 X8Z       0.0524
     25 H11        27.8488    2.9496  -44.8230 H           1 X8Z       0.0286
     26 H12        27.3031    3.8936  -43.4098 H           1 X8Z       0.0286
     27 H13        29.0318    2.6560  -42.3578 H           1 X8Z       0.0306
     28 H14        29.9503    2.5329  -43.8740 H           1 X8Z       0.0306
@<TRIPOS>BOND
     1     1     2   2
     2     2     3   1
     3     2     7  am
     4     3     4   1
     5     3     6   1
     6     4     5   1
     7     7     8   1
     8     7    12   1
     9     8     9   1
    10     8    14   1
    11     9    10  ar
    12     9    11  ar
    13    12    13   1
    14    13    14   1
    15     3    15   1
    16     4    16   1
    17     4    17   1
    18     5    18   1
    19     6    19   1
    20     6    20   1
    21     6    21   1
    22     8    22   1
    23    12    23   1
    24    12    24   1
    25    13    25   1
    26    13    26   1
    27    14    27   1
    28    14    28   1
@<TRIPOS>SUBSTRUCTURE
     1  X8Z      2

