@<TRIPOS>MOLECULE
2x8z_ligand_070
    28    28
SMALL
GAST_HUCK
****
This file was generated by PARSER (from files_GN.cpp)

@<TRIPOS>ATOM
      1 O1         26.0524   -2.4648  -44.4127 O.2         1 X8Z      -0.3964
      2 C4         25.6291   -1.7693  -45.3398 C.2         1 X8Z       0.1838
      3 C2         26.2063   -0.4211  -45.4347 C.3         1 X8Z       0.0548
      4 C1         25.9734    0.3999  -44.1262 C.3         1 X8Z       0.0101
      5 S          26.4564    2.1302  -44.2770 S.3         1 X8Z      -0.1756
      6 C3         27.7089   -0.5110  -45.8342 C.3         1 X8Z      -0.0446
      7 N          24.7395   -2.3085  -46.1933 N.am        1 X8Z      -0.2572
      8 C8         24.3025   -3.6855  -46.1494 C.3         1 X8Z       0.0971
      9 C9         25.3928   -4.6900  -46.1335 C.2         1 X8Z       0.0603
     10 O3         26.3731   -4.6590  -47.0611 O.co2       1 X8Z      -0.5666
     11 O2         25.4909   -5.5869  -45.1260 O.co2       1 X8Z      -0.5666
     12 C5         24.0783   -1.5727  -47.2324 C.3         1 X8Z       0.0362
     13 C6         22.9484   -2.4726  -47.7598 C.3         1 X8Z      -0.0288
     14 C7         23.4130   -3.8888  -47.4031 C.3         1 X8Z      -0.0159
     15 H1         25.7284    0.1433  -46.2378 H           1 X8Z       0.0543
     16 H2         26.5391   -0.0477  -43.3012 H           1 X8Z       0.0401
     17 H3         24.9149    0.3763  -43.8691 H           1 X8Z       0.0401
     18 H4         26.3940    2.3457  -42.9323 H           1 X8Z       0.1018
     19 H5         27.8365   -1.1225  -46.7312 H           1 X8Z       0.0257
     20 H6         28.3069   -0.9428  -45.0288 H           1 X8Z       0.0257
     21 H7         28.1030    0.4870  -46.0604 H           1 X8Z       0.0257
     22 H8         23.6931   -3.8179  -45.2503 H           1 X8Z       0.0728
     23 H9         24.7860   -1.3392  -48.0310 H           1 X8Z       0.0524
     24 H10        23.6342   -0.6507  -46.8512 H           1 X8Z       0.0524
     25 H11        22.7997   -2.3491  -48.8376 H           1 X8Z       0.0286
     26 H12        22.0116   -2.2433  -47.2397 H           1 X8Z       0.0286
     27 H13        22.5628   -4.5469  -47.1968 H           1 X8Z       0.0306
     28 H14        23.9821   -4.3010  -48.2476 H           1 X8Z       0.0306
@<TRIPOS>BOND
     1     1     2   2
     2     2     3   1
     3     2     7  am
     4     3     4   1
     5     3     6   1
     6     4     5   1
     7     7     8   1
     8     7    12   1
     9     8     9   1
    10     8    14   1
    11     9    10  ar
    12     9    11  ar
    13    12    13   1
    14    13    14   1
    15     3    15   1
    16     4    16   1
    17     4    17   1
    18     5    18   1
    19     6    19   1
    20     6    20   1
    21     6    21   1
    22     8    22   1
    23    12    23   1
    24    12    24   1
    25    13    25   1
    26    13    26   1
    27    14    27   1
    28    14    28   1
@<TRIPOS>SUBSTRUCTURE
     1  X8Z      2

