@<TRIPOS>MOLECULE
2x8z_ligand_041
    28    28
SMALL
GAST_HUCK
****
This file was generated by PARSER (from files_GN.cpp)

@<TRIPOS>ATOM
      1 O1         26.9101    8.4344  -35.2577 O.2         1 X8Z      -0.3964
      2 C4         27.8093    7.9265  -35.9205 C.2         1 X8Z       0.1838
      3 C2         27.6955    6.4761  -36.1654 C.3         1 X8Z       0.0548
      4 C1         26.7909    5.7503  -35.1158 C.3         1 X8Z       0.0101
      5 S          27.0837    3.9723  -34.9644 S.3         1 X8Z      -0.1756
      6 C3         27.1954    6.2347  -37.6194 C.3         1 X8Z      -0.0446
      7 N          28.7561    8.7378  -36.4373 N.am        1 X8Z      -0.2572
      8 C8         28.7791   10.1755  -36.2534 C.3         1 X8Z       0.0971
      9 C9         27.5604   10.9330  -36.6395 C.2         1 X8Z       0.0603
     10 O3         26.4750   10.3384  -37.1852 O.co2       1 X8Z      -0.5666
     11 O2         27.5220   12.2736  -36.4654 O.co2       1 X8Z      -0.5666
     12 C5         29.9253    8.2685  -37.1310 C.3         1 X8Z       0.0362
     13 C6         30.9014    9.4545  -37.1851 C.3         1 X8Z      -0.0288
     14 C7         29.9891   10.6777  -37.0773 C.3         1 X8Z      -0.0159
     15 H1         28.6814    6.0181  -36.0699 H           1 X8Z       0.0543
     16 H2         25.7381    5.9010  -35.3722 H           1 X8Z       0.0401
     17 H3         26.9654    6.1811  -34.1259 H           1 X8Z       0.0401
     18 H4         26.1357    3.8771  -33.9934 H           1 X8Z       0.1018
     19 H5         27.8552    6.7137  -38.3440 H           1 X8Z       0.0257
     20 H6         26.1874    6.6361  -37.7536 H           1 X8Z       0.0257
     21 H7         27.1728    5.1669  -37.8476 H           1 X8Z       0.0257
     22 H8         28.9659   10.3643  -35.1899 H           1 X8Z       0.0728
     23 H9         29.6551    7.9477  -38.1403 H           1 X8Z       0.0524
     24 H10        30.4228    7.4477  -36.6061 H           1 X8Z       0.0524
     25 H11        31.4825    9.4604  -38.1110 H           1 X8Z       0.0286
     26 H12        31.5863    9.4254  -36.3318 H           1 X8Z       0.0286
     27 H13        30.4964   11.5138  -36.5880 H           1 X8Z       0.0306
     28 H14        29.6919   10.9864  -38.0863 H           1 X8Z       0.0306
@<TRIPOS>BOND
     1     1     2   2
     2     2     3   1
     3     2     7  am
     4     3     4   1
     5     3     6   1
     6     4     5   1
     7     7     8   1
     8     7    12   1
     9     8     9   1
    10     8    14   1
    11     9    10  ar
    12     9    11  ar
    13    12    13   1
    14    13    14   1
    15     3    15   1
    16     4    16   1
    17     4    17   1
    18     5    18   1
    19     6    19   1
    20     6    20   1
    21     6    21   1
    22     8    22   1
    23    12    23   1
    24    12    24   1
    25    13    25   1
    26    13    26   1
    27    14    27   1
    28    14    28   1
@<TRIPOS>SUBSTRUCTURE
     1  X8Z      2

