@<TRIPOS>MOLECULE
2x8z_ligand_023
    28    28
SMALL
GAST_HUCK
****
This file was generated by PARSER (from files_GN.cpp)

@<TRIPOS>ATOM
      1 O1         24.5463   -1.6267  -43.8544 O.2         1 X8Z      -0.3964
      2 C4         25.5987   -1.8987  -44.4268 C.2         1 X8Z       0.1838
      3 C2         26.7547   -2.1576  -43.5513 C.3         1 X8Z       0.0548
      4 C1         27.2382   -0.8362  -42.8743 C.3         1 X8Z       0.0101
      5 S          28.9507   -0.9325  -42.2893 S.3         1 X8Z      -0.1756
      6 C3         26.4240   -3.2732  -42.5170 C.3         1 X8Z      -0.0446
      7 N          25.6076   -1.9357  -45.7749 N.am        1 X8Z      -0.2572
      8 C8         26.7653   -2.0903  -46.6231 C.3         1 X8Z       0.0971
      9 C9         27.7839   -1.0303  -46.4225 C.2         1 X8Z       0.0603
     10 O3         27.4134    0.2181  -46.0558 O.co2       1 X8Z      -0.5666
     11 O2         29.1005   -1.2944  -46.5992 O.co2       1 X8Z      -0.5666
     12 C5         24.3996   -1.8334  -46.5489 C.3         1 X8Z       0.0362
     13 C6         24.7471   -2.3832  -47.9386 C.3         1 X8Z      -0.0288
     14 C7         26.2378   -2.0646  -48.0812 C.3         1 X8Z      -0.0159
     15 H1         27.5887   -2.5427  -44.1412 H           1 X8Z       0.0543
     16 H2         26.5936   -0.5950  -42.0257 H           1 X8Z       0.0401
     17 H3         27.1843   -0.0109  -43.5905 H           1 X8Z       0.0401
     18 H4         28.9491    0.3491  -41.8296 H           1 X8Z       0.1018
     19 H5         26.0703   -4.1732  -43.0257 H           1 X8Z       0.0257
     20 H6         25.6545   -2.9430  -41.8134 H           1 X8Z       0.0257
     21 H7         27.3178   -3.5426  -41.9459 H           1 X8Z       0.0257
     22 H8         27.2150   -3.0732  -46.4369 H           1 X8Z       0.0728
     23 H9         24.0933   -0.7830  -46.6109 H           1 X8Z       0.0524
     24 H10        23.5786   -2.4221  -46.1186 H           1 X8Z       0.0524
     25 H11        24.1473   -1.9131  -48.7244 H           1 X8Z       0.0286
     26 H12        24.5909   -3.4648  -47.9609 H           1 X8Z       0.0286
     27 H13        26.7464   -2.7997  -48.7074 H           1 X8Z       0.0306
     28 H14        26.3400   -1.0787  -48.5409 H           1 X8Z       0.0306
@<TRIPOS>BOND
     1     1     2   2
     2     2     3   1
     3     2     7  am
     4     3     4   1
     5     3     6   1
     6     4     5   1
     7     7     8   1
     8     7    12   1
     9     8     9   1
    10     8    14   1
    11     9    10  ar
    12     9    11  ar
    13    12    13   1
    14    13    14   1
    15     3    15   1
    16     4    16   1
    17     4    17   1
    18     5    18   1
    19     6    19   1
    20     6    20   1
    21     6    21   1
    22     8    22   1
    23    12    23   1
    24    12    24   1
    25    13    25   1
    26    13    26   1
    27    14    27   1
    28    14    28   1
@<TRIPOS>SUBSTRUCTURE
     1  X8Z      2

