@<TRIPOS>MOLECULE
2x8z_ligand_008
    28    28
SMALL
GAST_HUCK
****
This file was generated by PARSER (from files_GN.cpp)

@<TRIPOS>ATOM
      1 O1         29.5421   11.7101  -45.8268 O.2         1 X8Z      -0.3964
      2 C4         28.8347   11.5158  -44.8444 C.2         1 X8Z       0.1838
      3 C2         28.9920   12.5190  -43.7710 C.3         1 X8Z       0.0548
      4 C1         27.9331   13.6542  -43.9107 C.3         1 X8Z       0.0101
      5 S          27.9531   14.4863  -45.5225 S.3         1 X8Z      -0.1756
      6 C3         29.0358   11.9455  -42.3301 C.3         1 X8Z      -0.0446
      7 N          27.9087   10.5355  -44.9251 N.am        1 X8Z      -0.2572
      8 C8         27.5032    9.9449  -46.1809 C.3         1 X8Z       0.0971
      9 C9         26.7597   10.9238  -47.0151 C.2         1 X8Z       0.0603
     10 O3         27.4064   11.7529  -47.8595 O.co2       1 X8Z      -0.5666
     11 O2         25.4486   11.1801  -46.7883 O.co2       1 X8Z      -0.5666
     12 C5         27.2299    9.9157  -43.8238 C.3         1 X8Z       0.0362
     13 C6         26.8161    8.5213  -44.3188 C.3         1 X8Z      -0.0288
     14 C7         26.6560    8.6933  -45.8308 C.3         1 X8Z      -0.0159
     15 H1         29.9673   13.0116  -43.8909 H           1 X8Z       0.0543
     16 H2         28.1072   14.4185  -43.1467 H           1 X8Z       0.0401
     17 H3         26.9317   13.2488  -43.7499 H           1 X8Z       0.0401
     18 H4         28.9869   15.3024  -45.1767 H           1 X8Z       0.1018
     19 H5         29.6310   11.0296  -42.2913 H           1 X8Z       0.0257
     20 H6         28.0297   11.7321  -41.9629 H           1 X8Z       0.0257
     21 H7         29.4894   12.6760  -41.6474 H           1 X8Z       0.0257
     22 H8         28.3832    9.6070  -46.7397 H           1 X8Z       0.0728
     23 H9         26.3511   10.5079  -43.5443 H           1 X8Z       0.0524
     24 H10        27.8675    9.7625  -42.9499 H           1 X8Z       0.0524
     25 H11        25.8948    8.1823  -43.8422 H           1 X8Z       0.0286
     26 H12        27.6100    7.7946  -44.1143 H           1 X8Z       0.0286
     27 H13        27.0193    7.8062  -46.3582 H           1 X8Z       0.0306
     28 H14        25.5962    8.8215  -46.0659 H           1 X8Z       0.0306
@<TRIPOS>BOND
     1     1     2   2
     2     2     3   1
     3     2     7  am
     4     3     4   1
     5     3     6   1
     6     4     5   1
     7     7     8   1
     8     7    12   1
     9     8     9   1
    10     8    14   1
    11     9    10  ar
    12     9    11  ar
    13    12    13   1
    14    13    14   1
    15     3    15   1
    16     4    16   1
    17     4    17   1
    18     5    18   1
    19     6    19   1
    20     6    20   1
    21     6    21   1
    22     8    22   1
    23    12    23   1
    24    12    24   1
    25    13    25   1
    26    13    26   1
    27    14    27   1
    28    14    28   1
@<TRIPOS>SUBSTRUCTURE
     1  X8Z      2

