@<TRIPOS>MOLECULE
2x8z_ligand_074
    28    28
SMALL
GAST_HUCK
****
This file was generated by PARSER (from files_GN.cpp)

@<TRIPOS>ATOM
      1 O1         27.6988   -4.7079  -43.5886 O.2         1 X8Z      -0.3964
      2 C4         26.7251   -3.9853  -43.7791 C.2         1 X8Z       0.1838
      3 C2         27.0354   -2.5903  -44.1411 C.3         1 X8Z       0.0548
      4 C1         27.6265   -1.7870  -42.9402 C.3         1 X8Z       0.0101
      5 S          26.7004   -1.9726  -41.3946 S.3         1 X8Z      -0.1756
      6 C3         27.9913   -2.5388  -45.3690 C.3         1 X8Z      -0.0446
      7 N          25.4956   -4.5141  -43.6199 N.am        1 X8Z      -0.2572
      8 C8         25.2499   -5.9078  -43.3161 C.3         1 X8Z       0.0971
      9 C9         25.8221   -6.8525  -44.3059 C.2         1 X8Z       0.0603
     10 O3         26.7043   -7.8019  -43.9219 O.co2       1 X8Z      -0.5666
     11 O2         25.5499   -6.7210  -45.6241 O.co2       1 X8Z      -0.5666
     12 C5         24.2760   -3.7568  -43.6407 C.3         1 X8Z       0.0362
     13 C6         23.2324   -4.6350  -42.9322 C.3         1 X8Z      -0.0288
     14 C7         23.7107   -6.0577  -43.2294 C.3         1 X8Z      -0.0159
     15 H1         26.1356   -2.0633  -44.4616 H           1 X8Z       0.0543
     16 H2         27.6527   -0.7219  -43.1829 H           1 X8Z       0.0401
     17 H3         28.6539   -2.1060  -42.7497 H           1 X8Z       0.0401
     18 H4         26.0240   -0.7973  -41.5296 H           1 X8Z       0.1018
     19 H5         27.5637   -3.0909  -46.2095 H           1 X8Z       0.0257
     20 H6         28.9658   -2.9706  -45.1297 H           1 X8Z       0.0257
     21 H7         28.1440   -1.5052  -45.6875 H           1 X8Z       0.0257
     22 H8         25.6746   -6.1213  -42.3287 H           1 X8Z       0.0728
     23 H9         23.9807   -3.5572  -44.6748 H           1 X8Z       0.0524
     24 H10        24.3586   -2.8132  -43.0986 H           1 X8Z       0.0524
     25 H11        22.2206   -4.4530  -43.3021 H           1 X8Z       0.0286
     26 H12        23.2588   -4.4554  -41.8529 H           1 X8Z       0.0286
     27 H13        23.4102   -6.7540  -42.4409 H           1 X8Z       0.0306
     28 H14        23.2716   -6.3869  -44.1773 H           1 X8Z       0.0306
@<TRIPOS>BOND
     1     1     2   2
     2     2     3   1
     3     2     7  am
     4     3     4   1
     5     3     6   1
     6     4     5   1
     7     7     8   1
     8     7    12   1
     9     8     9   1
    10     8    14   1
    11     9    10  ar
    12     9    11  ar
    13    12    13   1
    14    13    14   1
    15     3    15   1
    16     4    16   1
    17     4    17   1
    18     5    18   1
    19     6    19   1
    20     6    20   1
    21     6    21   1
    22     8    22   1
    23    12    23   1
    24    12    24   1
    25    13    25   1
    26    13    26   1
    27    14    27   1
    28    14    28   1
@<TRIPOS>SUBSTRUCTURE
     1  X8Z      2

