@<TRIPOS>MOLECULE
2x8z_ligand_047
    28    28
SMALL
GAST_HUCK
****
This file was generated by PARSER (from files_GN.cpp)

@<TRIPOS>ATOM
      1 O1         28.6868    5.9234  -35.5139 O.2         1 X8Z      -0.3964
      2 C4         28.5487    6.5990  -36.5359 C.2         1 X8Z       0.1838
      3 C2         27.2719    7.3242  -36.6705 C.3         1 X8Z       0.0548
      4 C1         26.0870    6.7491  -35.8163 C.3         1 X8Z       0.0101
      5 S          25.6761    5.0376  -36.2492 S.3         1 X8Z      -0.1756
      6 C3         27.4517    8.8352  -36.3339 C.3         1 X8Z      -0.0446
      7 N          29.6030    6.6641  -37.3848 N.am        1 X8Z      -0.2572
      8 C8         29.6670    7.3509  -38.6561 C.3         1 X8Z       0.0971
      9 C9         28.6602    6.9309  -39.6618 C.2         1 X8Z       0.0603
     10 O3         28.5236    5.6297  -40.0013 O.co2       1 X8Z      -0.5666
     11 O2         27.8436    7.8414  -40.2382 O.co2       1 X8Z      -0.5666
     12 C5         30.8678    6.0602  -37.0523 C.3         1 X8Z       0.0362
     13 C6         31.9040    6.7477  -37.9533 C.3         1 X8Z      -0.0288
     14 C7         31.0930    7.0949  -39.2030 C.3         1 X8Z      -0.0159
     15 H1         26.9241    7.2518  -37.7014 H           1 X8Z       0.0543
     16 H2         25.1833    7.3507  -35.9665 H           1 X8Z       0.0401
     17 H3         26.3426    6.7964  -34.7534 H           1 X8Z       0.0401
     18 H4         25.2279    4.7580  -34.9967 H           1 X8Z       0.1018
     19 H5         28.2312    9.2999  -36.9383 H           1 X8Z       0.0257
     20 H6         27.7201    8.9573  -35.2812 H           1 X8Z       0.0257
     21 H7         26.5244    9.3804  -36.5264 H           1 X8Z       0.0257
     22 H8         29.5794    8.4248  -38.4899 H           1 X8Z       0.0728
     23 H9         30.8251    4.9835  -37.2531 H           1 X8Z       0.0524
     24 H10        31.1527    6.2152  -36.0037 H           1 X8Z       0.0524
     25 H11        32.7472    6.0909  -38.1800 H           1 X8Z       0.0286
     26 H12        32.2706    7.6612  -37.4759 H           1 X8Z       0.0286
     27 H13        31.4934    7.9803  -39.7062 H           1 X8Z       0.0306
     28 H14        31.1329    6.2452  -39.8956 H           1 X8Z       0.0306
@<TRIPOS>BOND
     1     1     2   2
     2     2     3   1
     3     2     7  am
     4     3     4   1
     5     3     6   1
     6     4     5   1
     7     7     8   1
     8     7    12   1
     9     8     9   1
    10     8    14   1
    11     9    10  ar
    12     9    11  ar
    13    12    13   1
    14    13    14   1
    15     3    15   1
    16     4    16   1
    17     4    17   1
    18     5    18   1
    19     6    19   1
    20     6    20   1
    21     6    21   1
    22     8    22   1
    23    12    23   1
    24    12    24   1
    25    13    25   1
    26    13    26   1
    27    14    27   1
    28    14    28   1
@<TRIPOS>SUBSTRUCTURE
     1  X8Z      2

