@<TRIPOS>MOLECULE
2x8z_ligand_003
    28    28
SMALL
GAST_HUCK
****
This file was generated by PARSER (from files_GN.cpp)

@<TRIPOS>ATOM
      1 O1         24.5394   -2.0219  -43.7236 O.2         1 X8Z      -0.3964
      2 C4         25.6332   -1.6760  -44.1565 C.2         1 X8Z       0.1838
      3 C2         25.5959   -0.7085  -45.2609 C.3         1 X8Z       0.0548
      4 C1         25.1455   -1.3663  -46.6084 C.3         1 X8Z       0.0101
      5 S          23.3741   -1.5395  -46.9413 S.3         1 X8Z      -0.1756
      6 C3         24.8095    0.5735  -44.8713 C.3         1 X8Z      -0.0446
      7 N          26.7407   -2.1919  -43.5902 N.am        1 X8Z      -0.2572
      8 C8         28.1063   -2.0063  -44.0229 C.3         1 X8Z       0.0971
      9 C9         28.3813   -2.3690  -45.4356 C.2         1 X8Z       0.0603
     10 O3         29.1787   -1.5935  -46.2049 O.co2       1 X8Z      -0.5666
     11 O2         27.9214   -3.5353  -45.9511 O.co2       1 X8Z      -0.5666
     12 C5         26.6721   -3.0048  -42.4003 C.3         1 X8Z       0.0362
     13 C6         28.1028   -3.0623  -41.8385 C.3         1 X8Z      -0.0288
     14 C7         28.9722   -2.8830  -43.0844 C.3         1 X8Z      -0.0159
     15 H1         26.6094   -0.3426  -45.4388 H           1 X8Z       0.0543
     16 H2         25.5847   -2.3619  -46.7091 H           1 X8Z       0.0401
     17 H3         25.5379   -0.7656  -47.4295 H           1 X8Z       0.0401
     18 H4         23.1168   -2.4264  -45.9459 H           1 X8Z       0.1018
     19 H5         25.2109    1.0151  -43.9554 H           1 X8Z       0.0257
     20 H6         23.7530    0.3528  -44.7158 H           1 X8Z       0.0257
     21 H7         24.8960    1.3217  -45.6552 H           1 X8Z       0.0257
     22 H8         28.3775   -0.9561  -43.8636 H           1 X8Z       0.0728
     23 H9         26.3169   -4.0100  -42.6535 H           1 X8Z       0.0524
     24 H10        26.0118   -2.5730  -41.6381 H           1 X8Z       0.0524
     25 H11        28.3109   -4.0057  -41.3258 H           1 X8Z       0.0286
     26 H12        28.2707   -2.2292  -41.1490 H           1 X8Z       0.0286
     27 H13        29.9273   -2.4033  -42.8475 H           1 X8Z       0.0306
     28 H14        29.1722   -3.8701  -43.5203 H           1 X8Z       0.0306
@<TRIPOS>BOND
     1     1     2   2
     2     2     3   1
     3     2     7  am
     4     3     4   1
     5     3     6   1
     6     4     5   1
     7     7     8   1
     8     7    12   1
     9     8     9   1
    10     8    14   1
    11     9    10  ar
    12     9    11  ar
    13    12    13   1
    14    13    14   1
    15     3    15   1
    16     4    16   1
    17     4    17   1
    18     5    18   1
    19     6    19   1
    20     6    20   1
    21     6    21   1
    22     8    22   1
    23    12    23   1
    24    12    24   1
    25    13    25   1
    26    13    26   1
    27    14    27   1
    28    14    28   1
@<TRIPOS>SUBSTRUCTURE
     1  X8Z      2

