@<TRIPOS>MOLECULE
2x8z_ligand_030
    28    28
SMALL
GAST_HUCK
****
This file was generated by PARSER (from files_GN.cpp)

@<TRIPOS>ATOM
      1 O1         28.8473   10.7065  -36.2823 O.2         1 X8Z      -0.3964
      2 C4         29.4200   11.7387  -36.6133 C.2         1 X8Z       0.1838
      3 C2         29.3310   12.8497  -35.6564 C.3         1 X8Z       0.0548
      4 C1         27.9672   12.9097  -34.8861 C.3         1 X8Z       0.0101
      5 S          26.4866   13.2104  -35.8854 S.3         1 X8Z      -0.1756
      6 C3         30.5522   12.8155  -34.6934 C.3         1 X8Z      -0.0446
      7 N          30.1689   11.7169  -37.7337 N.am        1 X8Z      -0.2572
      8 C8         30.3069   10.5810  -38.6133 C.3         1 X8Z       0.0971
      9 C9         30.6015    9.2423  -38.0237 C.2         1 X8Z       0.0603
     10 O3         29.5879    8.4214  -37.6773 O.co2       1 X8Z      -0.5666
     11 O2         31.8771    8.7954  -37.9127 O.co2       1 X8Z      -0.5666
     12 C5         30.8277   12.8847  -38.2657 C.3         1 X8Z       0.0362
     13 C6         31.2329   12.5516  -39.7001 C.3         1 X8Z      -0.0288
     14 C7         31.3138   11.0110  -39.6937 C.3         1 X8Z      -0.0159
     15 H1         29.4059   13.8149  -36.1681 H           1 X8Z       0.0543
     16 H2         28.0132   13.7274  -34.1825 H           1 X8Z       0.0401
     17 H3         27.8208   11.9956  -34.3045 H           1 X8Z       0.0401
     18 H4         27.0106   12.8618  -37.1055 H           1 X8Z       0.1018
     19 H5         31.4919   12.8703  -35.2527 H           1 X8Z       0.0257
     20 H6         30.5722   11.9008  -34.0828 H           1 X8Z       0.0257
     21 H7         30.5349   13.6706  -34.0066 H           1 X8Z       0.0257
     22 H8         29.3357   10.4595  -39.1078 H           1 X8Z       0.0728
     23 H9         31.6996   13.1216  -37.6718 H           1 X8Z       0.0524
     24 H10        30.1707   13.7518  -38.2983 H           1 X8Z       0.0524
     25 H11        32.1774   13.0196  -39.9743 H           1 X8Z       0.0286
     26 H12        30.4712   12.8971  -40.4067 H           1 X8Z       0.0286
     27 H13        31.0690   10.6195  -40.6861 H           1 X8Z       0.0306
     28 H14        32.3300   10.6834  -39.4447 H           1 X8Z       0.0306
@<TRIPOS>BOND
     1     1     2   2
     2     2     3   1
     3     2     7  am
     4     3     4   1
     5     3     6   1
     6     4     5   1
     7     7     8   1
     8     7    12   1
     9     8     9   1
    10     8    14   1
    11     9    10  ar
    12     9    11  ar
    13    12    13   1
    14    13    14   1
    15     3    15   1
    16     4    16   1
    17     4    17   1
    18     5    18   1
    19     6    19   1
    20     6    20   1
    21     6    21   1
    22     8    22   1
    23    12    23   1
    24    12    24   1
    25    13    25   1
    26    13    26   1
    27    14    27   1
    28    14    28   1
@<TRIPOS>SUBSTRUCTURE
     1  X8Z      2

