@<TRIPOS>MOLECULE
2x8z_ligand_053
    28    28
SMALL
GAST_HUCK
****
This file was generated by PARSER (from files_GN.cpp)

@<TRIPOS>ATOM
      1 O1         32.2955    8.6333  -38.6243 O.2         1 X8Z      -0.3964
      2 C4         31.2956    8.5896  -37.9056 C.2         1 X8Z       0.1838
      3 C2         30.9060    9.8859  -37.3061 C.3         1 X8Z       0.0548
      4 C1         29.4053   10.2545  -37.5423 C.3         1 X8Z       0.0101
      5 S          28.7782   11.4773  -36.3491 S.3         1 X8Z      -0.1756
      6 C3         31.4151   10.0275  -35.8374 C.3         1 X8Z      -0.0446
      7 N          30.7275    7.3773  -37.7364 N.am        1 X8Z      -0.2572
      8 C8         31.2131    6.1631  -38.3768 C.3         1 X8Z       0.0971
      9 C9         31.1368    6.1669  -39.8570 C.2         1 X8Z       0.0603
     10 O3         31.8884    5.2915  -40.5688 O.co2       1 X8Z      -0.5666
     11 O2         30.2108    6.9056  -40.5223 O.co2       1 X8Z      -0.5666
     12 C5         29.6340    7.0865  -36.8553 C.3         1 X8Z       0.0362
     13 C6         29.7995    5.5987  -36.4954 C.3         1 X8Z      -0.0288
     14 C7         30.3713    5.0079  -37.7817 C.3         1 X8Z      -0.0159
     15 H1         31.4471   10.6705  -37.8482 H           1 X8Z       0.0543
     16 H2         28.7513    9.3647  -37.4886 H           1 X8Z       0.0401
     17 H3         29.3135   10.6924  -38.5562 H           1 X8Z       0.0401
     18 H4         27.9655   12.0598  -37.2827 H           1 X8Z       0.1018
     19 H5         32.4265    9.5977  -35.7270 H           1 X8Z       0.0257
     20 H6         30.7369    9.5461  -35.1323 H           1 X8Z       0.0257
     21 H7         31.4735   11.0882  -35.5722 H           1 X8Z       0.0257
     22 H8         32.2673    6.0250  -38.0810 H           1 X8Z       0.0728
     23 H9         28.6865    7.2450  -37.3882 H           1 X8Z       0.0524
     24 H10        29.6262    7.6663  -35.9359 H           1 X8Z       0.0524
     25 H11        28.8448    5.1419  -36.2172 H           1 X8Z       0.0286
     26 H12        30.5197    5.4893  -35.6697 H           1 X8Z       0.0286
     27 H13        30.9795    4.1240  -37.5797 H           1 X8Z       0.0306
     28 H14        29.5418    4.7467  -38.4373 H           1 X8Z       0.0306
@<TRIPOS>BOND
     1     1     2   2
     2     2     3   1
     3     2     7  am
     4     3     4   1
     5     3     6   1
     6     4     5   1
     7     7     8   1
     8     7    12   1
     9     8     9   1
    10     8    14   1
    11     9    10  ar
    12     9    11  ar
    13    12    13   1
    14    13    14   1
    15     3    15   1
    16     4    16   1
    17     4    17   1
    18     5    18   1
    19     6    19   1
    20     6    20   1
    21     6    21   1
    22     8    22   1
    23    12    23   1
    24    12    24   1
    25    13    25   1
    26    13    26   1
    27    14    27   1
    28    14    28   1
@<TRIPOS>SUBSTRUCTURE
     1  X8Z      2

