@<TRIPOS>MOLECULE
2x8z_ligand_078
    28    28
SMALL
GAST_HUCK
****
This file was generated by PARSER (from files_GN.cpp)

@<TRIPOS>ATOM
      1 O1         29.0426    5.5608  -38.4305 O.2         1 X8Z      -0.3964
      2 C4         28.3704    6.3066  -37.7184 C.2         1 X8Z       0.1838
      3 C2         27.2138    5.6244  -37.0860 C.3         1 X8Z       0.0548
      4 C1         27.1552    5.6812  -35.5291 C.3         1 X8Z       0.0101
      5 S          28.6969    5.1855  -34.7210 S.3         1 X8Z      -0.1756
      6 C3         25.8419    5.9863  -37.7185 C.3         1 X8Z      -0.0446
      7 N          28.8190    7.5781  -37.5784 N.am        1 X8Z      -0.2572
      8 C8         28.1655    8.6884  -36.9242 C.3         1 X8Z       0.0971
      9 C9         26.8938    9.1229  -37.5350 C.2         1 X8Z       0.0603
     10 O3         26.4933    8.6196  -38.7319 O.co2       1 X8Z      -0.5666
     11 O2         26.3426   10.2911  -37.1349 O.co2       1 X8Z      -0.5666
     12 C5         30.1304    7.9643  -38.0365 C.3         1 X8Z       0.0362
     13 C6         30.5257    9.1839  -37.1973 C.3         1 X8Z      -0.0288
     14 C7         29.1809    9.8626  -36.9496 C.3         1 X8Z      -0.0159
     15 H1         27.3108    4.5475  -37.2966 H           1 X8Z       0.0543
     16 H2         26.3687    5.0053  -35.1804 H           1 X8Z       0.0401
     17 H3         26.8716    6.6748  -35.1857 H           1 X8Z       0.0401
     18 H4         28.2515    5.5478  -33.4821 H           1 X8Z       0.1018
     19 H5         25.9218    6.0679  -38.8058 H           1 X8Z       0.0257
     20 H6         25.4542    6.9194  -37.3130 H           1 X8Z       0.0257
     21 H7         25.1081    5.2096  -37.4884 H           1 X8Z       0.0257
     22 H8         27.9824    8.4254  -35.8828 H           1 X8Z       0.0728
     23 H9         30.0835    8.2270  -39.0957 H           1 X8Z       0.0524
     24 H10        30.8840    7.1868  -37.8880 H           1 X8Z       0.0524
     25 H11        31.2220    9.8367  -37.7321 H           1 X8Z       0.0286
     26 H12        30.9748    8.8747  -36.2468 H           1 X8Z       0.0286
     27 H13        29.1765   10.4199  -36.0103 H           1 X8Z       0.0306
     28 H14        28.9855   10.5628  -37.7687 H           1 X8Z       0.0306
@<TRIPOS>BOND
     1     1     2   2
     2     2     3   1
     3     2     7  am
     4     3     4   1
     5     3     6   1
     6     4     5   1
     7     7     8   1
     8     7    12   1
     9     8     9   1
    10     8    14   1
    11     9    10  ar
    12     9    11  ar
    13    12    13   1
    14    13    14   1
    15     3    15   1
    16     4    16   1
    17     4    17   1
    18     5    18   1
    19     6    19   1
    20     6    20   1
    21     6    21   1
    22     8    22   1
    23    12    23   1
    24    12    24   1
    25    13    25   1
    26    13    26   1
    27    14    27   1
    28    14    28   1
@<TRIPOS>SUBSTRUCTURE
     1  X8Z      2

