@<TRIPOS>MOLECULE
2x8z_ligand_027
    28    28
SMALL
GAST_HUCK
****
This file was generated by PARSER (from files_GN.cpp)

@<TRIPOS>ATOM
      1 O1         26.0100    7.9739  -35.2946 O.2         1 X8Z      -0.3964
      2 C4         25.9665    7.2528  -36.2912 C.2         1 X8Z       0.1838
      3 C2         25.2646    5.9716  -36.0307 C.3         1 X8Z       0.0548
      4 C1         24.1300    5.5610  -37.0187 C.3         1 X8Z       0.0101
      5 S          22.4533    5.7990  -36.3799 S.3         1 X8Z      -0.1756
      6 C3         26.2628    4.8219  -35.7015 C.3         1 X8Z      -0.0446
      7 N          26.5955    7.7095  -37.4010 N.am        1 X8Z      -0.2572
      8 C8         26.6394    7.1297  -38.7276 C.3         1 X8Z       0.0971
      9 C9         27.1155    5.7416  -38.8157 C.2         1 X8Z       0.0603
     10 O3         26.2673    4.7009  -38.7539 O.co2       1 X8Z      -0.5666
     11 O2         28.4464    5.4777  -38.9768 O.co2       1 X8Z      -0.5666
     12 C5         27.2648    8.9932  -37.3884 C.3         1 X8Z       0.0362
     13 C6         27.4673    9.4134  -38.8452 C.3         1 X8Z      -0.0288
     14 C7         27.5202    8.0718  -39.5849 C.3         1 X8Z      -0.0159
     15 H1         24.7398    6.0791  -35.0667 H           1 X8Z       0.0543
     16 H2         24.2045    4.4950  -37.2589 H           1 X8Z       0.0401
     17 H3         24.1869    6.0997  -37.9559 H           1 X8Z       0.0401
     18 H4         22.4445    7.1495  -36.5423 H           1 X8Z       0.1018
     19 H5         27.0784    5.1794  -35.0639 H           1 X8Z       0.0257
     20 H6         26.6761    4.3867  -36.6201 H           1 X8Z       0.0257
     21 H7         25.7481    4.0192  -35.1616 H           1 X8Z       0.0257
     22 H8         25.6285    7.1785  -39.1417 H           1 X8Z       0.0728
     23 H9         28.2318    8.8950  -36.8826 H           1 X8Z       0.0524
     24 H10        26.6801    9.7683  -36.8869 H           1 X8Z       0.0524
     25 H11        28.3786   10.0015  -38.9819 H           1 X8Z       0.0286
     26 H12        26.6123   10.0042  -39.1884 H           1 X8Z       0.0286
     27 H13        27.1351    8.1775  -40.6042 H           1 X8Z       0.0306
     28 H14        28.5581    7.7247  -39.6422 H           1 X8Z       0.0306
@<TRIPOS>BOND
     1     1     2   2
     2     2     3   1
     3     2     7  am
     4     3     4   1
     5     3     6   1
     6     4     5   1
     7     7     8   1
     8     7    12   1
     9     8     9   1
    10     8    14   1
    11     9    10  ar
    12     9    11  ar
    13    12    13   1
    14    13    14   1
    15     3    15   1
    16     4    16   1
    17     4    17   1
    18     5    18   1
    19     6    19   1
    20     6    20   1
    21     6    21   1
    22     8    22   1
    23    12    23   1
    24    12    24   1
    25    13    25   1
    26    13    26   1
    27    14    27   1
    28    14    28   1
@<TRIPOS>SUBSTRUCTURE
     1  X8Z      2

