@<TRIPOS>MOLECULE
2x8z_ligand_054
    28    28
SMALL
GAST_HUCK
****
This file was generated by PARSER (from files_GN.cpp)

@<TRIPOS>ATOM
      1 O1         26.1512    7.9583  -38.7186 O.2         1 X8Z      -0.3964
      2 C4         26.7861    7.6495  -37.7123 C.2         1 X8Z       0.1838
      3 C2         26.5868    6.2760  -37.2210 C.3         1 X8Z       0.0548
      4 C1         25.1341    6.0596  -36.6905 C.3         1 X8Z       0.0101
      5 S          24.6627    7.2412  -35.4018 S.3         1 X8Z      -0.1756
      6 C3         26.9469    5.2477  -38.3262 C.3         1 X8Z      -0.0446
      7 N          27.5828    8.5808  -37.1496 N.am        1 X8Z      -0.2572
      8 C8         27.8272    9.8862  -37.7341 C.3         1 X8Z       0.0971
      9 C9         28.3579    9.8296  -39.1144 C.2         1 X8Z       0.0603
     10 O3         27.5561   10.0896  -40.1725 O.co2       1 X8Z      -0.5666
     11 O2         29.6528    9.4866  -39.3450 O.co2       1 X8Z      -0.5666
     12 C5         28.2422    8.4334  -35.8800 C.3         1 X8Z       0.0362
     13 C6         28.6615    9.8497  -35.4514 C.3         1 X8Z      -0.0288
     14 C7         28.8121   10.6048  -36.7722 C.3         1 X8Z      -0.0159
     15 H1         27.2553    6.0554  -36.3933 H           1 X8Z       0.0543
     16 H2         25.0263    5.0433  -36.2956 H           1 X8Z       0.0401
     17 H3         24.4139    6.1633  -37.5129 H           1 X8Z       0.0401
     18 H4         24.4742    6.2839  -34.4431 H           1 X8Z       0.1018
     19 H5         27.9573    5.4344  -38.7082 H           1 X8Z       0.0257
     20 H6         26.2416    5.3003  -39.1647 H           1 X8Z       0.0257
     21 H7         26.9274    4.2295  -37.9221 H           1 X8Z       0.0257
     22 H8         26.8729   10.4308  -37.7233 H           1 X8Z       0.0728
     23 H9         29.1163    7.7848  -35.9949 H           1 X8Z       0.0524
     24 H10        27.5775    8.0219  -35.1168 H           1 X8Z       0.0524
     25 H11        29.5929    9.8382  -34.8779 H           1 X8Z       0.0286
     26 H12        27.8730   10.3114  -34.8448 H           1 X8Z       0.0286
     27 H13        28.5679   11.6644  -36.6623 H           1 X8Z       0.0306
     28 H14        29.8494   10.5131  -37.1021 H           1 X8Z       0.0306
@<TRIPOS>BOND
     1     1     2   2
     2     2     3   1
     3     2     7  am
     4     3     4   1
     5     3     6   1
     6     4     5   1
     7     7     8   1
     8     7    12   1
     9     8     9   1
    10     8    14   1
    11     9    10  ar
    12     9    11  ar
    13    12    13   1
    14    13    14   1
    15     3    15   1
    16     4    16   1
    17     4    17   1
    18     5    18   1
    19     6    19   1
    20     6    20   1
    21     6    21   1
    22     8    22   1
    23    12    23   1
    24    12    24   1
    25    13    25   1
    26    13    26   1
    27    14    27   1
    28    14    28   1
@<TRIPOS>SUBSTRUCTURE
     1  X8Z      2

