@<TRIPOS>MOLECULE
2x8z_ligand_076
    28    28
SMALL
GAST_HUCK
****
This file was generated by PARSER (from files_GN.cpp)

@<TRIPOS>ATOM
      1 O1         24.2837   -2.6171  -43.7570 O.2         1 X8Z      -0.3964
      2 C4         25.0083   -3.6032  -43.7976 C.2         1 X8Z       0.1838
      3 C2         24.5053   -4.7965  -43.0923 C.3         1 X8Z       0.0548
      4 C1         24.6929   -4.6650  -41.5363 C.3         1 X8Z       0.0101
      5 S          25.3990   -6.1561  -40.7887 S.3         1 X8Z      -0.1756
      6 C3         23.0390   -5.1495  -43.4858 C.3         1 X8Z      -0.0446
      7 N          26.2167   -3.5124  -44.4005 N.am        1 X8Z      -0.2572
      8 C8         26.6710   -2.3558  -45.1364 C.3         1 X8Z       0.0971
      9 C9         25.7565   -1.9113  -46.2143 C.2         1 X8Z       0.0603
     10 O3         25.7994   -0.6307  -46.6432 O.co2       1 X8Z      -0.5666
     11 O2         25.0982   -2.8172  -46.9730 O.co2       1 X8Z      -0.5666
     12 C5         27.2429   -4.5136  -44.2972 C.3         1 X8Z       0.0362
     13 C6         28.5465   -3.8469  -44.7697 C.3         1 X8Z      -0.0288
     14 C7         28.0531   -2.7448  -45.7127 C.3         1 X8Z      -0.0159
     15 H1         25.0671   -5.6637  -43.4439 H           1 X8Z       0.0543
     16 H2         23.7322   -4.4839  -41.0443 H           1 X8Z       0.0401
     17 H3         25.3484   -3.8227  -41.2740 H           1 X8Z       0.0401
     18 H4         25.3644   -5.6375  -39.5328 H           1 X8Z       0.1018
     19 H5         22.9582   -5.2885  -44.5711 H           1 X8Z       0.0257
     20 H6         22.3537   -4.3611  -43.1601 H           1 X8Z       0.0257
     21 H7         22.7520   -6.0906  -43.0013 H           1 X8Z       0.0257
     22 H8         26.8016   -1.5343  -44.4246 H           1 X8Z       0.0728
     23 H9         26.9972   -5.3690  -44.9334 H           1 X8Z       0.0524
     24 H10        27.3777   -4.8546  -43.2658 H           1 X8Z       0.0524
     25 H11        29.2104   -4.5581  -45.2743 H           1 X8Z       0.0286
     26 H12        29.0736   -3.4013  -43.9179 H           1 X8Z       0.0286
     27 H13        28.7426   -1.8943  -45.7317 H           1 X8Z       0.0306
     28 H14        27.9636   -3.1604  -46.7225 H           1 X8Z       0.0306
@<TRIPOS>BOND
     1     1     2   2
     2     2     3   1
     3     2     7  am
     4     3     4   1
     5     3     6   1
     6     4     5   1
     7     7     8   1
     8     7    12   1
     9     8     9   1
    10     8    14   1
    11     9    10  ar
    12     9    11  ar
    13    12    13   1
    14    13    14   1
    15     3    15   1
    16     4    16   1
    17     4    17   1
    18     5    18   1
    19     6    19   1
    20     6    20   1
    21     6    21   1
    22     8    22   1
    23    12    23   1
    24    12    24   1
    25    13    25   1
    26    13    26   1
    27    14    27   1
    28    14    28   1
@<TRIPOS>SUBSTRUCTURE
     1  X8Z      2

