@<TRIPOS>MOLECULE
2x8z_ligand_024
    28    28
SMALL
GAST_HUCK
****
This file was generated by PARSER (from files_GN.cpp)

@<TRIPOS>ATOM
      1 O1         32.1648    4.6220  -41.6611 O.2         1 X8Z      -0.3964
      2 C4         30.9888    4.9661  -41.6118 C.2         1 X8Z       0.1838
      3 C2         30.2012    4.7284  -42.8358 C.3         1 X8Z       0.0548
      4 C1         30.5394    5.7136  -44.0013 C.3         1 X8Z       0.0101
      5 S          32.2052    5.6118  -44.7075 S.3         1 X8Z      -0.1756
      6 C3         30.2494    3.2441  -43.3032 C.3         1 X8Z      -0.0446
      7 N          30.5225    5.5013  -40.4604 N.am        1 X8Z      -0.2572
      8 C8         29.2226    6.0923  -40.2414 C.3         1 X8Z       0.0971
      9 C9         28.8606    7.1805  -41.1821 C.2         1 X8Z       0.0603
     10 O3         29.7296    8.1813  -41.4448 O.co2       1 X8Z      -0.5666
     11 O2         27.6442    7.2031  -41.7698 O.co2       1 X8Z      -0.5666
     12 C5         31.3004    5.4750  -39.2495 C.3         1 X8Z       0.0362
     13 C6         30.3326    5.8157  -38.1044 C.3         1 X8Z      -0.0288
     14 C7         29.2484    6.6443  -38.7942 C.3         1 X8Z      -0.0159
     15 H1         29.1473    4.8927  -42.6193 H           1 X8Z       0.0543
     16 H2         30.3700    6.7437  -43.6835 H           1 X8Z       0.0401
     17 H3         29.8431    5.5314  -44.8232 H           1 X8Z       0.0401
     18 H4         32.7398    6.4954  -43.8219 H           1 X8Z       0.1018
     19 H5         29.9043    2.5853  -42.5017 H           1 X8Z       0.0257
     20 H6         31.2653    2.9540  -43.5788 H           1 X8Z       0.0257
     21 H7         29.6017    3.0938  -44.1739 H           1 X8Z       0.0257
     22 H8         28.4695    5.2965  -40.2942 H           1 X8Z       0.0728
     23 H9         32.1089    6.2101  -39.3147 H           1 X8Z       0.0524
     24 H10        31.7250    4.4829  -39.0682 H           1 X8Z       0.0524
     25 H11        30.8300    6.3734  -37.3061 H           1 X8Z       0.0286
     26 H12        29.8968    4.8992  -37.6911 H           1 X8Z       0.0286
     27 H13        28.2820    6.5244  -38.2981 H           1 X8Z       0.0306
     28 H14        29.5389    7.6998  -38.7584 H           1 X8Z       0.0306
@<TRIPOS>BOND
     1     1     2   2
     2     2     3   1
     3     2     7  am
     4     3     4   1
     5     3     6   1
     6     4     5   1
     7     7     8   1
     8     7    12   1
     9     8     9   1
    10     8    14   1
    11     9    10  ar
    12     9    11  ar
    13    12    13   1
    14    13    14   1
    15     3    15   1
    16     4    16   1
    17     4    17   1
    18     5    18   1
    19     6    19   1
    20     6    20   1
    21     6    21   1
    22     8    22   1
    23    12    23   1
    24    12    24   1
    25    13    25   1
    26    13    26   1
    27    14    27   1
    28    14    28   1
@<TRIPOS>SUBSTRUCTURE
     1  X8Z      2

