@<TRIPOS>MOLECULE
2x8z_ligand_021
    28    28
SMALL
GAST_HUCK
****
This file was generated by PARSER (from files_GN.cpp)

@<TRIPOS>ATOM
      1 O1         29.7706    9.7771  -44.0117 O.2         1 X8Z      -0.3964
      2 C4         29.4730    9.4215  -45.1482 C.2         1 X8Z       0.1838
      3 C2         28.3723   10.1681  -45.7859 C.3         1 X8Z       0.0548
      4 C1         27.0146    9.7656  -45.1349 C.3         1 X8Z       0.0101
      5 S          25.5627   10.3664  -46.0325 S.3         1 X8Z      -0.1756
      6 C3         28.6259   11.7033  -45.7470 C.3         1 X8Z      -0.0446
      7 N          30.1255    8.3733  -45.6836 N.am        1 X8Z      -0.2572
      8 C8         31.2517    7.7168  -45.0620 C.3         1 X8Z       0.0971
      9 C9         32.3755    8.6245  -44.7202 C.2         1 X8Z       0.0603
     10 O3         33.0667    9.2816  -45.6853 O.co2       1 X8Z      -0.5666
     11 O2         32.7035    8.8705  -43.4322 O.co2       1 X8Z      -0.5666
     12 C5         29.7046    7.6955  -46.8779 C.3         1 X8Z       0.0362
     13 C6         30.4362    6.3416  -46.8819 C.3         1 X8Z      -0.0288
     14 C7         31.6934    6.6152  -46.0565 C.3         1 X8Z      -0.0159
     15 H1         28.3191    9.9086  -46.8439 H           1 X8Z       0.0543
     16 H2         26.9585   10.1556  -44.1156 H           1 X8Z       0.0401
     17 H3         26.9296    8.6760  -45.0836 H           1 X8Z       0.0401
     18 H4         25.7458    9.5113  -47.0750 H           1 X8Z       0.1018
     19 H5         29.6045   11.9396  -46.1693 H           1 X8Z       0.0257
     20 H6         28.5867   12.0813  -44.7216 H           1 X8Z       0.0257
     21 H7         27.8767   12.2316  -46.3355 H           1 X8Z       0.0257
     22 H8         30.8999    7.2361  -44.1485 H           1 X8Z       0.0728
     23 H9         29.9779    8.2856  -47.7570 H           1 X8Z       0.0524
     24 H10        28.6226    7.5128  -46.8925 H           1 X8Z       0.0524
     25 H11        30.6713    6.0151  -47.8969 H           1 X8Z       0.0286
     26 H12        29.8239    5.5819  -46.3894 H           1 X8Z       0.0286
     27 H13        32.0423    5.7142  -45.5413 H           1 X8Z       0.0306
     28 H14        32.4847    6.9655  -46.7296 H           1 X8Z       0.0306
@<TRIPOS>BOND
     1     1     2   2
     2     2     3   1
     3     2     7  am
     4     3     4   1
     5     3     6   1
     6     4     5   1
     7     7     8   1
     8     7    12   1
     9     8     9   1
    10     8    14   1
    11     9    10  ar
    12     9    11  ar
    13    12    13   1
    14    13    14   1
    15     3    15   1
    16     4    16   1
    17     4    17   1
    18     5    18   1
    19     6    19   1
    20     6    20   1
    21     6    21   1
    22     8    22   1
    23    12    23   1
    24    12    24   1
    25    13    25   1
    26    13    26   1
    27    14    27   1
    28    14    28   1
@<TRIPOS>SUBSTRUCTURE
     1  X8Z      2

