@<TRIPOS>MOLECULE
2x8z_ligand_072
    28    28
SMALL
GAST_HUCK
****
This file was generated by PARSER (from files_GN.cpp)

@<TRIPOS>ATOM
      1 O1         32.5220    8.2818  -38.2447 O.2         1 X8Z      -0.3964
      2 C4         31.4193    8.0502  -38.7481 C.2         1 X8Z       0.1838
      3 C2         30.8672    6.7285  -38.3762 C.3         1 X8Z       0.0548
      4 C1         29.4025    6.6906  -37.8245 C.3         1 X8Z       0.0101
      5 S          28.9601    8.0563  -36.7157 S.3         1 X8Z      -0.1756
      6 C3         31.0886    5.6382  -39.4591 C.3         1 X8Z      -0.0446
      7 N          30.8603    9.0342  -39.4760 N.am        1 X8Z      -0.2572
      8 C8         29.6864    8.9538  -40.3169 C.3         1 X8Z       0.0971
      9 C9         29.8590    8.0663  -41.4846 C.2         1 X8Z       0.0603
     10 O3         28.7986    7.3830  -41.9697 O.co2       1 X8Z      -0.5666
     11 O2         30.9554    8.1885  -42.2689 O.co2       1 X8Z      -0.5666
     12 C5         31.3529   10.3867  -39.4108 C.3         1 X8Z       0.0362
     13 C6         30.1543   11.2720  -39.7785 C.3         1 X8Z      -0.0288
     14 C7         29.3838   10.4054  -40.7792 C.3         1 X8Z      -0.0159
     15 H1         31.4548    6.3667  -37.5172 H           1 X8Z       0.0543
     16 H2         29.2367    5.7564  -37.2853 H           1 X8Z       0.0401
     17 H3         28.6897    6.6987  -38.6493 H           1 X8Z       0.0401
     18 H4         29.9024    7.7338  -35.7908 H           1 X8Z       0.1018
     19 H5         32.0760    5.7430  -39.9166 H           1 X8Z       0.0257
     20 H6         30.3368    5.6911  -40.2505 H           1 X8Z       0.0257
     21 H7         31.0363    4.6499  -39.0146 H           1 X8Z       0.0257
     22 H8         28.8289    8.6200  -39.7394 H           1 X8Z       0.0728
     23 H9         32.1747   10.5270  -40.1215 H           1 X8Z       0.0524
     24 H10        31.6917   10.6669  -38.4117 H           1 X8Z       0.0524
     25 H11        30.4622   12.2264  -40.2161 H           1 X8Z       0.0286
     26 H12        29.5430   11.4594  -38.8869 H           1 X8Z       0.0286
     27 H13        28.3147   10.6256  -40.7532 H           1 X8Z       0.0306
     28 H14        29.7521   10.6147  -41.7908 H           1 X8Z       0.0306
@<TRIPOS>BOND
     1     1     2   2
     2     2     3   1
     3     2     7  am
     4     3     4   1
     5     3     6   1
     6     4     5   1
     7     7     8   1
     8     7    12   1
     9     8     9   1
    10     8    14   1
    11     9    10  ar
    12     9    11  ar
    13    12    13   1
    14    13    14   1
    15     3    15   1
    16     4    16   1
    17     4    17   1
    18     5    18   1
    19     6    19   1
    20     6    20   1
    21     6    21   1
    22     8    22   1
    23    12    23   1
    24    12    24   1
    25    13    25   1
    26    13    26   1
    27    14    27   1
    28    14    28   1
@<TRIPOS>SUBSTRUCTURE
     1  X8Z      2

