@<TRIPOS>MOLECULE
2x8z_ligand_035
    28    28
SMALL
GAST_HUCK
****
This file was generated by PARSER (from files_GN.cpp)

@<TRIPOS>ATOM
      1 O1         32.4343    8.5634  -38.6226 O.2         1 X8Z      -0.3964
      2 C4         31.5215    7.8841  -39.0808 C.2         1 X8Z       0.1838
      3 C2         31.5607    6.4814  -38.6049 C.3         1 X8Z       0.0548
      4 C1         31.0804    6.3791  -37.1222 C.3         1 X8Z       0.0101
      5 S          29.3035    6.6103  -36.8753 S.3         1 X8Z      -0.1756
      6 C3         31.0031    5.3529  -39.5106 C.3         1 X8Z      -0.0446
      7 N          30.6046    8.5432  -39.8215 N.am        1 X8Z      -0.2572
      8 C8         30.6768    9.9736  -40.0745 C.3         1 X8Z       0.0971
      9 C9         30.6367   10.8129  -38.8499 C.2         1 X8Z       0.0603
     10 O3         29.6925   10.5775  -37.9125 O.co2       1 X8Z      -0.5666
     11 O2         31.2140   12.0348  -38.8479 O.co2       1 X8Z      -0.5666
     12 C5         29.4834    7.9617  -40.5015 C.3         1 X8Z       0.0362
     13 C6         29.1298    8.9654  -41.6126 C.3         1 X8Z      -0.0288
     14 C7         29.4948   10.3186  -41.0072 C.3         1 X8Z      -0.0159
     15 H1         32.6281    6.2169  -38.5601 H           1 X8Z       0.0543
     16 H2         31.5899    7.1400  -36.5274 H           1 X8Z       0.0401
     17 H3         31.3556    5.4082  -36.7045 H           1 X8Z       0.0401
     18 H4         29.4687    7.1355  -35.6275 H           1 X8Z       0.1018
     19 H5         31.2958    5.5163  -40.5471 H           1 X8Z       0.0257
     20 H6         29.9191    5.2841  -39.4478 H           1 X8Z       0.0257
     21 H7         31.4115    4.3871  -39.1964 H           1 X8Z       0.0257
     22 H8         31.6125   10.1744  -40.6081 H           1 X8Z       0.0728
     23 H9         28.6478    7.8331  -39.8096 H           1 X8Z       0.0524
     24 H10        29.6956    7.0134  -40.9918 H           1 X8Z       0.0524
     25 H11        28.0759    8.9113  -41.9094 H           1 X8Z       0.0286
     26 H12        29.7594    8.7795  -42.4907 H           1 X8Z       0.0286
     27 H13        29.7783   11.0438  -41.7734 H           1 X8Z       0.0306
     28 H14        28.6283   10.7022  -40.4610 H           1 X8Z       0.0306
@<TRIPOS>BOND
     1     1     2   2
     2     2     3   1
     3     2     7  am
     4     3     4   1
     5     3     6   1
     6     4     5   1
     7     7     8   1
     8     7    12   1
     9     8     9   1
    10     8    14   1
    11     9    10  ar
    12     9    11  ar
    13    12    13   1
    14    13    14   1
    15     3    15   1
    16     4    16   1
    17     4    17   1
    18     5    18   1
    19     6    19   1
    20     6    20   1
    21     6    21   1
    22     8    22   1
    23    12    23   1
    24    12    24   1
    25    13    25   1
    26    13    26   1
    27    14    27   1
    28    14    28   1
@<TRIPOS>SUBSTRUCTURE
     1  X8Z      2

