@<TRIPOS>MOLECULE
2x8z_ligand_063
    28    28
SMALL
GAST_HUCK
****
This file was generated by PARSER (from files_GN.cpp)

@<TRIPOS>ATOM
      1 O1         25.9370   -1.7401  -42.8755 O.2         1 X8Z      -0.3964
      2 C4         27.0165   -1.8098  -43.4581 C.2         1 X8Z       0.1838
      3 C2         27.6205   -0.5082  -43.8302 C.3         1 X8Z       0.0548
      4 C1         26.7336    0.3437  -44.7897 C.3         1 X8Z       0.0101
      5 S          24.9480    0.2861  -44.4977 S.3         1 X8Z      -0.1756
      6 C3         28.0897    0.2852  -42.5692 C.3         1 X8Z      -0.0446
      7 N          27.5693   -3.0227  -43.6677 N.am        1 X8Z      -0.2572
      8 C8         27.0162   -4.2560  -43.1342 C.3         1 X8Z       0.0971
      9 C9         26.8102   -4.3336  -41.6694 C.2         1 X8Z       0.0603
     10 O3         26.8627   -3.2281  -40.8739 O.co2       1 X8Z      -0.5666
     11 O2         26.4806   -5.5249  -41.1038 O.co2       1 X8Z      -0.5666
     12 C5         28.6971   -3.2612  -44.5203 C.3         1 X8Z       0.0362
     13 C6         28.6972   -4.7701  -44.8106 C.3         1 X8Z      -0.0288
     14 C7         27.9994   -5.3672  -43.5876 C.3         1 X8Z      -0.0159
     15 H1         28.5472   -0.6803  -44.3899 H           1 X8Z       0.0543
     16 H2         26.8918   -0.0073  -45.8273 H           1 X8Z       0.0401
     17 H3         27.0615    1.3991  -44.7696 H           1 X8Z       0.0401
     18 H4         24.8239    1.5876  -44.0535 H           1 X8Z       0.1018
     19 H5         28.7629   -0.3431  -41.9725 H           1 X8Z       0.0257
     20 H6         27.2334    0.5747  -41.9440 H           1 X8Z       0.0257
     21 H7         28.6284    1.1900  -42.8718 H           1 X8Z       0.0257
     22 H8         26.0469   -4.4265  -43.6187 H           1 X8Z       0.0728
     23 H9         29.6127   -2.9659  -43.9971 H           1 X8Z       0.0524
     24 H10        28.6275   -2.7107  -45.4658 H           1 X8Z       0.0524
     25 H11        29.7179   -5.1539  -44.9446 H           1 X8Z       0.0286
     26 H12        28.1169   -4.9759  -45.7199 H           1 X8Z       0.0286
     27 H13        27.4862   -6.2966  -43.8438 H           1 X8Z       0.0306
     28 H14        28.7597   -5.5671  -42.8292 H           1 X8Z       0.0306
@<TRIPOS>BOND
     1     1     2   2
     2     2     3   1
     3     2     7  am
     4     3     4   1
     5     3     6   1
     6     4     5   1
     7     7     8   1
     8     7    12   1
     9     8     9   1
    10     8    14   1
    11     9    10  ar
    12     9    11  ar
    13    12    13   1
    14    13    14   1
    15     3    15   1
    16     4    16   1
    17     4    17   1
    18     5    18   1
    19     6    19   1
    20     6    20   1
    21     6    21   1
    22     8    22   1
    23    12    23   1
    24    12    24   1
    25    13    25   1
    26    13    26   1
    27    14    27   1
    28    14    28   1
@<TRIPOS>SUBSTRUCTURE
     1  X8Z      2

