@<TRIPOS>MOLECULE
2x8z_ligand_019
    28    28
SMALL
GAST_HUCK
****
This file was generated by PARSER (from files_GN.cpp)

@<TRIPOS>ATOM
      1 O1         29.5031   10.9623  -44.8288 O.2         1 X8Z      -0.3964
      2 C4         28.7563   10.0239  -44.5642 C.2         1 X8Z       0.1838
      3 C2         27.4512   10.0144  -45.2601 C.3         1 X8Z       0.0548
      4 C1         26.2503   10.5034  -44.3775 C.3         1 X8Z       0.0101
      5 S          26.6417   11.8572  -43.2399 S.3         1 X8Z      -0.1756
      6 C3         27.4690   10.7889  -46.6186 C.3         1 X8Z      -0.0446
      7 N          29.1903    9.1301  -43.6523 N.am        1 X8Z      -0.2572
      8 C8         30.5196    9.1613  -43.0622 C.3         1 X8Z       0.0971
      9 C9         31.6688    9.0940  -43.9999 C.2         1 X8Z       0.0603
     10 O3         31.5036    9.0013  -45.3384 O.co2       1 X8Z      -0.5666
     11 O2         32.9368    9.1213  -43.5256 O.co2       1 X8Z      -0.5666
     12 C5         28.3839    8.0867  -43.0827 C.3         1 X8Z       0.0362
     13 C6         29.0976    7.6655  -41.7887 C.3         1 X8Z      -0.0288
     14 C7         30.5681    7.9652  -42.0799 C.3         1 X8Z      -0.0159
     15 H1         27.2547    8.9771  -45.5409 H           1 X8Z       0.0543
     16 H2         25.8586    9.6713  -43.7911 H           1 X8Z       0.0401
     17 H3         25.4238   10.8397  -45.0100 H           1 X8Z       0.0401
     18 H4         25.4657   11.7843  -42.5481 H           1 X8Z       0.1018
     19 H5         28.2834   10.4428  -47.2595 H           1 X8Z       0.0257
     20 H6         27.5898   11.8614  -46.4525 H           1 X8Z       0.0257
     21 H7         26.5311   10.6323  -47.1604 H           1 X8Z       0.0257
     22 H8         30.6080   10.0917  -42.4903 H           1 X8Z       0.0728
     23 H9         28.3030    7.2455  -43.7781 H           1 X8Z       0.0524
     24 H10        27.3824    8.4196  -42.8108 H           1 X8Z       0.0524
     25 H11        28.9326    6.6115  -41.5491 H           1 X8Z       0.0286
     26 H12        28.7564    8.2807  -40.9522 H           1 X8Z       0.0286
     27 H13        31.1173    8.2108  -41.1659 H           1 X8Z       0.0306
     28 H14        31.0243    7.0816  -42.5393 H           1 X8Z       0.0306
@<TRIPOS>BOND
     1     1     2   2
     2     2     3   1
     3     2     7  am
     4     3     4   1
     5     3     6   1
     6     4     5   1
     7     7     8   1
     8     7    12   1
     9     8     9   1
    10     8    14   1
    11     9    10  ar
    12     9    11  ar
    13    12    13   1
    14    13    14   1
    15     3    15   1
    16     4    16   1
    17     4    17   1
    18     5    18   1
    19     6    19   1
    20     6    20   1
    21     6    21   1
    22     8    22   1
    23    12    23   1
    24    12    24   1
    25    13    25   1
    26    13    26   1
    27    14    27   1
    28    14    28   1
@<TRIPOS>SUBSTRUCTURE
     1  X8Z      2

