@<TRIPOS>MOLECULE
2x8z_ligand_029
    28    28
SMALL
GAST_HUCK
****
This file was generated by PARSER (from files_GN.cpp)

@<TRIPOS>ATOM
      1 O1         28.6214   -1.8246  -45.0473 O.2         1 X8Z      -0.3964
      2 C4         27.8741   -1.7276  -44.0749 C.2         1 X8Z       0.1838
      3 C2         28.2598   -0.6475  -43.1368 C.3         1 X8Z       0.0548
      4 C1         27.2397    0.5342  -43.0681 C.3         1 X8Z       0.0101
      5 S          27.1969    1.5704  -44.5531 S.3         1 X8Z      -0.1756
      6 C3         28.6677   -1.1244  -41.7119 C.3         1 X8Z      -0.0446
      7 N          26.8106   -2.5594  -44.0289 N.am        1 X8Z      -0.2572
      8 C8         25.9266   -2.8146  -42.9134 C.3         1 X8Z       0.0971
      9 C9         26.5740   -3.4726  -41.7588 C.2         1 X8Z       0.0603
     10 O3         27.1950   -4.6678  -41.9092 O.co2       1 X8Z      -0.5666
     11 O2         26.3203   -3.0398  -40.5009 O.co2       1 X8Z      -0.5666
     12 C5         26.3955   -3.3025  -45.1897 C.3         1 X8Z       0.0362
     13 C6         24.9095   -3.6159  -44.9742 C.3         1 X8Z      -0.0288
     14 C7         24.8005   -3.7419  -43.4552 C.3         1 X8Z      -0.0159
     15 H1         29.1832   -0.1810  -43.5138 H           1 X8Z       0.0543
     16 H2         27.5016    1.1884  -42.2345 H           1 X8Z       0.0401
     17 H3         26.2330    0.1577  -42.8931 H           1 X8Z       0.0401
     18 H4         28.5487    1.5686  -44.6736 H           1 X8Z       0.1018
     19 H5         29.1838   -2.0892  -41.7609 H           1 X8Z       0.0257
     20 H6         27.7965   -1.2063  -41.0578 H           1 X8Z       0.0257
     21 H7         29.3456   -0.3996  -41.2504 H           1 X8Z       0.0257
     22 H8         25.4622   -1.8829  -42.5823 H           1 X8Z       0.0728
     23 H9         26.9826   -4.2242  -45.2682 H           1 X8Z       0.0524
     24 H10        26.5027   -2.7312  -46.1164 H           1 X8Z       0.0524
     25 H11        24.6077   -4.5345  -45.4898 H           1 X8Z       0.0286
     26 H12        24.2903   -2.7859  -45.3275 H           1 X8Z       0.0286
     27 H13        23.8107   -3.4343  -43.1066 H           1 X8Z       0.0306
     28 H14        24.9497   -4.7928  -43.1817 H           1 X8Z       0.0306
@<TRIPOS>BOND
     1     1     2   2
     2     2     3   1
     3     2     7  am
     4     3     4   1
     5     3     6   1
     6     4     5   1
     7     7     8   1
     8     7    12   1
     9     8     9   1
    10     8    14   1
    11     9    10  ar
    12     9    11  ar
    13    12    13   1
    14    13    14   1
    15     3    15   1
    16     4    16   1
    17     4    17   1
    18     5    18   1
    19     6    19   1
    20     6    20   1
    21     6    21   1
    22     8    22   1
    23    12    23   1
    24    12    24   1
    25    13    25   1
    26    13    26   1
    27    14    27   1
    28    14    28   1
@<TRIPOS>SUBSTRUCTURE
     1  X8Z      2

