@<TRIPOS>MOLECULE
2x8z_ligand_037
    28    28
SMALL
GAST_HUCK
****
This file was generated by PARSER (from files_GN.cpp)

@<TRIPOS>ATOM
      1 O1         26.2373    9.6746  -38.5514 O.2         1 X8Z      -0.3964
      2 C4         27.4364    9.8042  -38.3100 C.2         1 X8Z       0.1838
      3 C2         27.7545    9.9598  -36.8691 C.3         1 X8Z       0.0548
      4 C1         28.8980    9.0611  -36.3222 C.3         1 X8Z       0.0101
      5 S          28.4561    7.2966  -36.2940 S.3         1 X8Z      -0.1756
      6 C3         27.9415   11.4503  -36.4489 C.3         1 X8Z      -0.0446
      7 N          28.2847    9.7794  -39.3616 N.am        1 X8Z      -0.2572
      8 C8         27.8563    9.4820  -40.7309 C.3         1 X8Z       0.0971
      9 C9         27.2459    8.1439  -40.9583 C.2         1 X8Z       0.0603
     10 O3         27.2338    7.1761  -39.9991 O.co2       1 X8Z      -0.5666
     11 O2         26.6773    7.8504  -42.1612 O.co2       1 X8Z      -0.5666
     12 C5         29.6702   10.1433  -39.3273 C.3         1 X8Z       0.0362
     13 C6         30.0060   10.5756  -40.7703 C.3         1 X8Z      -0.0288
     14 C7         29.1239    9.6533  -41.6096 C.3         1 X8Z      -0.0159
     15 H1         26.8707    9.6523  -36.3002 H           1 X8Z       0.0543
     16 H2         29.1406    9.3606  -35.2909 H           1 X8Z       0.0401
     17 H3         29.8075    9.1779  -36.9272 H           1 X8Z       0.0401
     18 H4         28.1896    7.3090  -34.9451 H           1 X8Z       0.1018
     19 H5         27.0930   12.0535  -36.7807 H           1 X8Z       0.0257
     20 H6         28.8632   11.8768  -36.8606 H           1 X8Z       0.0257
     21 H7         27.9912   11.5262  -35.3552 H           1 X8Z       0.0257
     22 H8         27.1168   10.2437  -41.0288 H           1 X8Z       0.0728
     23 H9         30.2702    9.2744  -39.0473 H           1 X8Z       0.0524
     24 H10        29.8831   10.9768  -38.6524 H           1 X8Z       0.0524
     25 H11        31.0706   10.4461  -40.9918 H           1 X8Z       0.0286
     26 H12        29.7291   11.6270  -40.9320 H           1 X8Z       0.0286
     27 H13        28.8924   10.1031  -42.5726 H           1 X8Z       0.0306
     28 H14        29.6378    8.7068  -41.7573 H           1 X8Z       0.0306
@<TRIPOS>BOND
     1     1     2   2
     2     2     3   1
     3     2     7  am
     4     3     4   1
     5     3     6   1
     6     4     5   1
     7     7     8   1
     8     7    12   1
     9     8     9   1
    10     8    14   1
    11     9    10  ar
    12     9    11  ar
    13    12    13   1
    14    13    14   1
    15     3    15   1
    16     4    16   1
    17     4    17   1
    18     5    18   1
    19     6    19   1
    20     6    20   1
    21     6    21   1
    22     8    22   1
    23    12    23   1
    24    12    24   1
    25    13    25   1
    26    13    26   1
    27    14    27   1
    28    14    28   1
@<TRIPOS>SUBSTRUCTURE
     1  X8Z      2

