@<TRIPOS>MOLECULE
2x8z_ligand_002
    28    28
SMALL
GAST_HUCK
****
This file was generated by PARSER (from files_GN.cpp)

@<TRIPOS>ATOM
      1 O1         28.2772    6.5075  -45.4484 O.2         1 X8Z      -0.3964
      2 C4         28.6168    7.5872  -45.9322 C.2         1 X8Z       0.1838
      3 C2         29.7931    7.5237  -46.8197 C.3         1 X8Z       0.0548
      4 C1         31.0708    6.9830  -46.0976 C.3         1 X8Z       0.0101
      5 S          31.7789    8.1534  -44.9131 S.3         1 X8Z      -0.1756
      6 C3         29.4889    6.6483  -48.0671 C.3         1 X8Z      -0.0446
      7 N          27.8648    8.6633  -45.6450 N.am        1 X8Z      -0.2572
      8 C8         28.0776   10.0297  -46.0696 C.3         1 X8Z       0.0971
      9 C9         29.3633   10.6091  -45.6192 C.2         1 X8Z       0.0603
     10 O3         30.0402   11.4716  -46.4113 O.co2       1 X8Z      -0.5666
     11 O2         29.7843   10.4409  -44.3517 O.co2       1 X8Z      -0.5666
     12 C5         26.6369    8.5433  -44.8941 C.3         1 X8Z       0.0362
     13 C6         25.8252    9.8121  -45.2012 C.3         1 X8Z      -0.0288
     14 C7         26.8950   10.8556  -45.4990 C.3         1 X8Z      -0.0159
     15 H1         30.0319    8.5107  -47.2147 H           1 X8Z       0.0543
     16 H2         31.8400    6.7251  -46.8311 H           1 X8Z       0.0401
     17 H3         30.8404    6.0699  -45.5511 H           1 X8Z       0.0401
     18 H4         32.8797    8.4312  -45.6939 H           1 X8Z       0.1018
     19 H5         28.5874    6.9942  -48.5721 H           1 X8Z       0.0257
     20 H6         29.3537    5.6062  -47.7813 H           1 X8Z       0.0257
     21 H7         30.3097    6.7036  -48.7816 H           1 X8Z       0.0257
     22 H8         28.0284   10.0574  -47.1669 H           1 X8Z       0.0728
     23 H9         26.8640    8.4811  -43.8284 H           1 X8Z       0.0524
     24 H10        26.0483    7.6732  -45.1843 H           1 X8Z       0.0524
     25 H11        25.1997   10.1069  -44.3561 H           1 X8Z       0.0286
     26 H12        25.1993    9.6717  -46.0889 H           1 X8Z       0.0286
     27 H13        26.5434   11.6065  -46.2158 H           1 X8Z       0.0306
     28 H14        27.1569   11.3643  -44.5623 H           1 X8Z       0.0306
@<TRIPOS>BOND
     1     1     2   2
     2     2     3   1
     3     2     7  am
     4     3     4   1
     5     3     6   1
     6     4     5   1
     7     7     8   1
     8     7    12   1
     9     8     9   1
    10     8    14   1
    11     9    10  ar
    12     9    11  ar
    13    12    13   1
    14    13    14   1
    15     3    15   1
    16     4    16   1
    17     4    17   1
    18     5    18   1
    19     6    19   1
    20     6    20   1
    21     6    21   1
    22     8    22   1
    23    12    23   1
    24    12    24   1
    25    13    25   1
    26    13    26   1
    27    14    27   1
    28    14    28   1
@<TRIPOS>SUBSTRUCTURE
     1  X8Z      2

