@<TRIPOS>MOLECULE
2x8z_ligand_032
    28    28
SMALL
GAST_HUCK
****
This file was generated by PARSER (from files_GN.cpp)

@<TRIPOS>ATOM
      1 O1         31.0889    6.2075  -36.1733 O.2         1 X8Z      -0.3964
      2 C4         29.9854    5.6942  -36.3477 C.2         1 X8Z       0.1838
      3 C2         28.9896    6.5156  -37.0627 C.3         1 X8Z       0.0548
      4 C1         28.3469    7.5671  -36.1032 C.3         1 X8Z       0.0101
      5 S          26.9093    8.4316  -36.7822 S.3         1 X8Z      -0.1756
      6 C3         29.6019    7.1592  -38.3436 C.3         1 X8Z      -0.0446
      7 N          29.7664    4.4628  -35.8485 N.am        1 X8Z      -0.2572
      8 C8         30.8023    3.6240  -35.2803 C.3         1 X8Z       0.0971
      9 C9         31.9328    3.2737  -36.1744 C.2         1 X8Z       0.0603
     10 O3         31.9709    3.6631  -37.4716 O.co2       1 X8Z      -0.5666
     11 O2         32.9553    2.5169  -35.7084 O.co2       1 X8Z      -0.5666
     12 C5         28.4566    3.9052  -35.6551 C.3         1 X8Z       0.0362
     13 C6         28.6293    2.8073  -34.5957 C.3         1 X8Z      -0.0288
     14 C7         30.0728    2.3430  -34.8051 C.3         1 X8Z      -0.0159
     15 H1         28.1870    5.8684  -37.4210 H           1 X8Z       0.0543
     16 H2         29.0911    8.3071  -35.7877 H           1 X8Z       0.0401
     17 H3         27.9892    7.0550  -35.2041 H           1 X8Z       0.0401
     18 H4         27.6540    9.2655  -37.5586 H           1 X8Z       0.1018
     19 H5         30.1397    6.4102  -38.9308 H           1 X8Z       0.0257
     20 H6         30.2960    7.9633  -38.0821 H           1 X8Z       0.0257
     21 H7         28.8143    7.5746  -38.9777 H           1 X8Z       0.0257
     22 H8         31.2100    4.1442  -34.4062 H           1 X8Z       0.0728
     23 H9         28.0769    3.4892  -36.5937 H           1 X8Z       0.0524
     24 H10        27.7457    4.6467  -35.2758 H           1 X8Z       0.0524
     25 H11        27.9166    1.9927  -34.7292 H           1 X8Z       0.0286
     26 H12        28.5177    3.2241  -33.5897 H           1 X8Z       0.0286
     27 H13        30.5092    1.9489  -33.8844 H           1 X8Z       0.0306
     28 H14        30.0847    1.5589  -35.5716 H           1 X8Z       0.0306
@<TRIPOS>BOND
     1     1     2   2
     2     2     3   1
     3     2     7  am
     4     3     4   1
     5     3     6   1
     6     4     5   1
     7     7     8   1
     8     7    12   1
     9     8     9   1
    10     8    14   1
    11     9    10  ar
    12     9    11  ar
    13    12    13   1
    14    13    14   1
    15     3    15   1
    16     4    16   1
    17     4    17   1
    18     5    18   1
    19     6    19   1
    20     6    20   1
    21     6    21   1
    22     8    22   1
    23    12    23   1
    24    12    24   1
    25    13    25   1
    26    13    26   1
    27    14    27   1
    28    14    28   1
@<TRIPOS>SUBSTRUCTURE
     1  X8Z      2

