@<TRIPOS>MOLECULE
2x8z_ligand_005
    28    28
SMALL
GAST_HUCK
****
This file was generated by PARSER (from files_GN.cpp)

@<TRIPOS>ATOM
      1 O1         29.7543    5.2111  -39.4740 O.2         1 X8Z      -0.3964
      2 C4         30.1776    6.3634  -39.4203 C.2         1 X8Z       0.1838
      3 C2         30.2815    6.9709  -38.0796 C.3         1 X8Z       0.0548
      4 C1         29.6272    6.1603  -36.9061 C.3         1 X8Z       0.0101
      5 S          30.6066    4.8143  -36.1834 S.3         1 X8Z      -0.1756
      6 C3         31.7505    7.3722  -37.7526 C.3         1 X8Z      -0.0446
      7 N          30.4653    6.9727  -40.5873 N.am        1 X8Z      -0.2572
      8 C8         30.3339    6.3387  -41.8820 C.3         1 X8Z       0.0971
      9 C9         31.0274    5.0347  -42.0521 C.2         1 X8Z       0.0603
     10 O3         30.3504    3.9615  -42.5241 O.co2       1 X8Z      -0.5666
     11 O2         32.3117    4.8535  -41.6645 O.co2       1 X8Z      -0.5666
     12 C5         30.7859    8.3708  -40.7221 C.3         1 X8Z       0.0362
     13 C6         30.6113    8.7170  -42.2081 C.3         1 X8Z      -0.0288
     14 C7         30.8508    7.3768  -42.9058 C.3         1 X8Z      -0.0159
     15 H1         29.6970    7.8936  -38.1124 H           1 X8Z       0.0543
     16 H2         28.6565    5.7610  -37.2182 H           1 X8Z       0.0401
     17 H3         29.4279    6.8569  -36.0829 H           1 X8Z       0.0401
     18 H4         29.9512    3.8175  -36.8285 H           1 X8Z       0.1018
     19 H5         32.1031    8.1734  -38.4103 H           1 X8Z       0.0257
     20 H6         32.4180    6.5165  -37.8632 H           1 X8Z       0.0257
     21 H7         31.8148    7.7389  -36.7267 H           1 X8Z       0.0257
     22 H8         29.2648    6.1815  -42.0663 H           1 X8Z       0.0728
     23 H9         31.8208    8.5555  -40.4292 H           1 X8Z       0.0524
     24 H10        30.1271    9.0188  -40.1404 H           1 X8Z       0.0524
     25 H11        31.3213    9.4825  -42.5366 H           1 X8Z       0.0286
     26 H12        29.5922    9.0691  -42.4003 H           1 X8Z       0.0286
     27 H13        30.3103    7.3171  -43.8526 H           1 X8Z       0.0306
     28 H14        31.9241    7.2578  -43.0953 H           1 X8Z       0.0306
@<TRIPOS>BOND
     1     1     2   2
     2     2     3   1
     3     2     7  am
     4     3     4   1
     5     3     6   1
     6     4     5   1
     7     7     8   1
     8     7    12   1
     9     8     9   1
    10     8    14   1
    11     9    10  ar
    12     9    11  ar
    13    12    13   1
    14    13    14   1
    15     3    15   1
    16     4    16   1
    17     4    17   1
    18     5    18   1
    19     6    19   1
    20     6    20   1
    21     6    21   1
    22     8    22   1
    23    12    23   1
    24    12    24   1
    25    13    25   1
    26    13    26   1
    27    14    27   1
    28    14    28   1
@<TRIPOS>SUBSTRUCTURE
     1  X8Z      2

