@<TRIPOS>MOLECULE
2x8z_ligand_010
    28    28
SMALL
GAST_HUCK
****
This file was generated by PARSER (from files_GN.cpp)

@<TRIPOS>ATOM
      1 O1         28.4422    5.0003  -43.2296 O.2         1 X8Z      -0.3964
      2 C4         28.2317    4.9851  -42.0218 C.2         1 X8Z       0.1838
      3 C2         26.9396    4.4166  -41.6107 C.3         1 X8Z       0.0548
      4 C1         25.8074    5.4883  -41.6490 C.3         1 X8Z       0.0101
      5 S          25.4781    6.2621  -43.2529 S.3         1 X8Z      -0.1756
      6 C3         26.5815    3.1141  -42.3822 C.3         1 X8Z      -0.0446
      7 N          29.1284    5.5670  -41.2018 N.am        1 X8Z      -0.2572
      8 C8         30.4135    6.0715  -41.6423 C.3         1 X8Z       0.0971
      9 C9         31.3473    5.0144  -42.1283 C.2         1 X8Z       0.0603
     10 O3         32.5895    4.8412  -41.6283 O.co2       1 X8Z      -0.5666
     11 O2         30.9846    4.1435  -43.0961 O.co2       1 X8Z      -0.5666
     12 C5         28.8512    5.9309  -39.8397 C.3         1 X8Z       0.0362
     13 C6         29.7167    7.1712  -39.5843 C.3         1 X8Z      -0.0288
     14 C7         30.9540    6.8918  -40.4367 C.3         1 X8Z      -0.0159
     15 H1         27.0172    4.0910  -40.5688 H           1 X8Z       0.0543
     16 H2         26.0587    6.2988  -40.9627 H           1 X8Z       0.0401
     17 H3         24.8776    5.0447  -41.2895 H           1 X8Z       0.0401
     18 H4         24.6318    5.2706  -43.6403 H           1 X8Z       0.1018
     19 H5         27.3674    2.3667  -42.2451 H           1 X8Z       0.0257
     20 H6         26.4652    3.3022  -43.4516 H           1 X8Z       0.0257
     21 H7         25.6465    2.7007  -41.9993 H           1 X8Z       0.0257
     22 H8         30.2492    6.7704  -42.4704 H           1 X8Z       0.0728
     23 H9         29.1400    5.1144  -39.1726 H           1 X8Z       0.0524
     24 H10        27.8091    6.1971  -39.6507 H           1 X8Z       0.0524
     25 H11        29.9593    7.2892  -38.5238 H           1 X8Z       0.0286
     26 H12        29.2036    8.0697  -39.9429 H           1 X8Z       0.0286
     27 H13        31.4258    7.8255  -40.7570 H           1 X8Z       0.0306
     28 H14        31.6649    6.3244  -39.8276 H           1 X8Z       0.0306
@<TRIPOS>BOND
     1     1     2   2
     2     2     3   1
     3     2     7  am
     4     3     4   1
     5     3     6   1
     6     4     5   1
     7     7     8   1
     8     7    12   1
     9     8     9   1
    10     8    14   1
    11     9    10  ar
    12     9    11  ar
    13    12    13   1
    14    13    14   1
    15     3    15   1
    16     4    16   1
    17     4    17   1
    18     5    18   1
    19     6    19   1
    20     6    20   1
    21     6    21   1
    22     8    22   1
    23    12    23   1
    24    12    24   1
    25    13    25   1
    26    13    26   1
    27    14    27   1
    28    14    28   1
@<TRIPOS>SUBSTRUCTURE
     1  X8Z      2

