@<TRIPOS>MOLECULE
2x8z_ligand_066
    28    28
SMALL
GAST_HUCK
****
This file was generated by PARSER (from files_GN.cpp)

@<TRIPOS>ATOM
      1 O1         25.7606   10.3986  -44.8003 O.2         1 X8Z      -0.3964
      2 C4         26.7874   10.5666  -45.4508 C.2         1 X8Z       0.1838
      3 C2         26.8995   11.9003  -46.0850 C.3         1 X8Z       0.0548
      4 C1         28.1683   12.7085  -45.6557 C.3         1 X8Z       0.0101
      5 S          28.0721   14.4715  -46.0561 S.3         1 X8Z      -0.1756
      6 C3         26.6593   11.8387  -47.6240 C.3         1 X8Z      -0.0446
      7 N          27.6549    9.5270  -45.5156 N.am        1 X8Z      -0.2572
      8 C8         27.4525    8.2805  -44.8029 C.3         1 X8Z       0.0971
      9 C9         27.3101    8.4391  -43.3318 C.2         1 X8Z       0.0603
     10 O3         26.2772    7.8571  -42.6767 O.co2       1 X8Z      -0.5666
     11 O2         28.1454    9.2499  -42.6379 O.co2       1 X8Z      -0.5666
     12 C5         28.8577    9.4807  -46.2952 C.3         1 X8Z       0.0362
     13 C6         29.1914    7.9871  -46.4547 C.3         1 X8Z      -0.0288
     14 C7         28.6715    7.3857  -45.1474 C.3         1 X8Z      -0.0159
     15 H1         26.0567   12.5006  -45.7103 H           1 X8Z       0.0543
     16 H2         29.0616   12.3229  -46.1466 H           1 X8Z       0.0401
     17 H3         28.3028   12.6289  -44.5726 H           1 X8Z       0.0401
     18 H4         29.0609   14.8321  -45.1866 H           1 X8Z       0.1018
     19 H5         25.7380   11.2901  -47.8390 H           1 X8Z       0.0257
     20 H6         27.4764   11.3479  -48.1451 H           1 X8Z       0.0257
     21 H7         26.5663   12.8496  -48.0259 H           1 X8Z       0.0257
     22 H8         26.5489    7.7990  -45.2019 H           1 X8Z       0.0728
     23 H9         29.6675    9.9850  -45.7604 H           1 X8Z       0.0524
     24 H10        28.7594    9.9115  -47.2904 H           1 X8Z       0.0524
     25 H11        30.2642    7.8192  -46.5828 H           1 X8Z       0.0286
     26 H12        28.6483    7.5612  -47.3083 H           1 X8Z       0.0286
     27 H13        28.3808    6.3366  -45.2718 H           1 X8Z       0.0306
     28 H14        29.4612    7.4520  -44.3882 H           1 X8Z       0.0306
@<TRIPOS>BOND
     1     1     2   2
     2     2     3   1
     3     2     7  am
     4     3     4   1
     5     3     6   1
     6     4     5   1
     7     7     8   1
     8     7    12   1
     9     8     9   1
    10     8    14   1
    11     9    10  ar
    12     9    11  ar
    13    12    13   1
    14    13    14   1
    15     3    15   1
    16     4    16   1
    17     4    17   1
    18     5    18   1
    19     6    19   1
    20     6    20   1
    21     6    21   1
    22     8    22   1
    23    12    23   1
    24    12    24   1
    25    13    25   1
    26    13    26   1
    27    14    27   1
    28    14    28   1
@<TRIPOS>SUBSTRUCTURE
     1  X8Z      2

