@<TRIPOS>MOLECULE
2x8z_ligand_018
    28    28
SMALL
GAST_HUCK
****
This file was generated by PARSER (from files_GN.cpp)

@<TRIPOS>ATOM
      1 O1         25.8755    4.8995  -38.0291 O.2         1 X8Z      -0.3964
      2 C4         26.5455    5.8778  -37.7036 C.2         1 X8Z       0.1838
      3 C2         26.6718    6.0948  -36.2498 C.3         1 X8Z       0.0548
      4 C1         25.4831    6.9217  -35.6706 C.3         1 X8Z       0.0101
      5 S          23.8385    6.1720  -35.8188 S.3         1 X8Z      -0.1756
      6 C3         26.9186    4.7715  -35.4609 C.3         1 X8Z      -0.0446
      7 N          27.1314    6.6071  -38.6745 N.am        1 X8Z      -0.2572
      8 C8         27.8650    7.8318  -38.5068 C.3         1 X8Z       0.0971
      9 C9         27.0798    8.8936  -37.8337 C.2         1 X8Z       0.0603
     10 O3         26.0518    9.5077  -38.4705 O.co2       1 X8Z      -0.5666
     11 O2         27.3542    9.2496  -36.5558 O.co2       1 X8Z      -0.5666
     12 C5         27.1417    6.1648  -40.0422 C.3         1 X8Z       0.0362
     13 C6         28.2330    6.9827  -40.7492 C.3         1 X8Z      -0.0288
     14 C7         28.2868    8.2771  -39.9325 C.3         1 X8Z      -0.0159
     15 H1         27.5676    6.6968  -36.0552 H           1 X8Z       0.0543
     16 H2         25.4698    7.8870  -36.1833 H           1 X8Z       0.0401
     17 H3         25.6671    7.1182  -34.6114 H           1 X8Z       0.0401
     18 H4         23.9196    5.5873  -34.5863 H           1 X8Z       0.1018
     19 H5         27.7986    4.2559  -35.8561 H           1 X8Z       0.0257
     20 H6         26.0622    4.0973  -35.5237 H           1 X8Z       0.0257
     21 H7         27.1104    4.9953  -34.4083 H           1 X8Z       0.0257
     22 H8         28.7700    7.6321  -37.9342 H           1 X8Z       0.0728
     23 H9         26.1650    6.3525  -40.5025 H           1 X8Z       0.0524
     24 H10        27.3852    5.0974  -40.1298 H           1 X8Z       0.0524
     25 H11        27.9919    7.1642  -41.8035 H           1 X8Z       0.0286
     26 H12        29.1928    6.4568  -40.6853 H           1 X8Z       0.0286
     27 H13        29.2919    8.7083  -39.9540 H           1 X8Z       0.0306
     28 H14        27.5825    9.0013  -40.3675 H           1 X8Z       0.0306
@<TRIPOS>BOND
     1     1     2   2
     2     2     3   1
     3     2     7  am
     4     3     4   1
     5     3     6   1
     6     4     5   1
     7     7     8   1
     8     7    12   1
     9     8     9   1
    10     8    14   1
    11     9    10  ar
    12     9    11  ar
    13    12    13   1
    14    13    14   1
    15     3    15   1
    16     4    16   1
    17     4    17   1
    18     5    18   1
    19     6    19   1
    20     6    20   1
    21     6    21   1
    22     8    22   1
    23    12    23   1
    24    12    24   1
    25    13    25   1
    26    13    26   1
    27    14    27   1
    28    14    28   1
@<TRIPOS>SUBSTRUCTURE
     1  X8Z      2

