@<TRIPOS>MOLECULE
2x8z_ligand_083
    28    28
SMALL
GAST_HUCK
****
This file was generated by PARSER (from files_GN.cpp)

@<TRIPOS>ATOM
      1 O1         24.8131   -2.0745  -44.8388 O.2         1 X8Z      -0.3964
      2 C4         25.3999   -1.9934  -43.7643 C.2         1 X8Z       0.1838
      3 C2         26.1250   -0.7324  -43.5326 C.3         1 X8Z       0.0548
      4 C1         27.5604   -0.7169  -44.1547 C.3         1 X8Z       0.0101
      5 S          27.6142   -1.0323  -45.9389 S.3         1 X8Z      -0.1756
      6 C3         25.2772    0.5111  -43.9629 C.3         1 X8Z      -0.0446
      7 N          25.2977   -3.0216  -42.9011 N.am        1 X8Z      -0.2572
      8 C8         26.0436   -3.2127  -41.6782 C.3         1 X8Z       0.0971
      9 C9         27.5150   -3.1787  -41.8705 C.2         1 X8Z       0.0603
     10 O3         28.2636   -2.1499  -41.4004 O.co2       1 X8Z      -0.5666
     11 O2         28.1273   -4.1200  -42.6174 O.co2       1 X8Z      -0.5666
     12 C5         24.3443   -4.0797  -43.0915 C.3         1 X8Z       0.0362
     13 C6         24.2401   -4.8322  -41.7466 C.3         1 X8Z      -0.0288
     14 C7         25.6019   -4.5831  -41.0949 C.3         1 X8Z      -0.0159
     15 H1         26.2654   -0.6052  -42.4539 H           1 X8Z       0.0543
     16 H2         28.1948   -1.4577  -43.6498 H           1 X8Z       0.0401
     17 H3         28.0044    0.2748  -43.9909 H           1 X8Z       0.0401
     18 H4         27.4467    0.2840  -46.2593 H           1 X8Z       0.1018
     19 H5         24.3217    0.5318  -43.4231 H           1 X8Z       0.0257
     20 H6         25.0765    0.4940  -45.0318 H           1 X8Z       0.0257
     21 H7         25.8280    1.4321  -43.7112 H           1 X8Z       0.0257
     22 H8         25.7679   -2.4305  -40.9525 H           1 X8Z       0.0728
     23 H9         24.6855   -4.7474  -43.8900 H           1 X8Z       0.0524
     24 H10        23.3458   -3.6908  -43.3524 H           1 X8Z       0.0524
     25 H11        24.0475   -5.9010  -41.8885 H           1 X8Z       0.0286
     26 H12        23.4333   -4.4029  -41.1336 H           1 X8Z       0.0286
     27 H13        25.5348   -4.5480  -40.0020 H           1 X8Z       0.0306
     28 H14        26.2779   -5.3872  -41.3909 H           1 X8Z       0.0306
@<TRIPOS>BOND
     1     1     2   2
     2     2     3   1
     3     2     7  am
     4     3     4   1
     5     3     6   1
     6     4     5   1
     7     7     8   1
     8     7    12   1
     9     8     9   1
    10     8    14   1
    11     9    10  ar
    12     9    11  ar
    13    12    13   1
    14    13    14   1
    15     3    15   1
    16     4    16   1
    17     4    17   1
    18     5    18   1
    19     6    19   1
    20     6    20   1
    21     6    21   1
    22     8    22   1
    23    12    23   1
    24    12    24   1
    25    13    25   1
    26    13    26   1
    27    14    27   1
    28    14    28   1
@<TRIPOS>SUBSTRUCTURE
     1  X8Z      2

