@<TRIPOS>MOLECULE
2x8z_ligand_087
    28    28
SMALL
GAST_HUCK
****
This file was generated by PARSER (from files_GN.cpp)

@<TRIPOS>ATOM
      1 O1         29.1463    6.0820  -45.9272 O.2         1 X8Z      -0.3964
      2 C4         30.2693    6.0837  -45.4271 C.2         1 X8Z       0.1838
      3 C2         31.1891    7.0900  -46.0019 C.3         1 X8Z       0.0548
      4 C1         31.9402    7.9923  -44.9793 C.3         1 X8Z       0.0101
      5 S          30.8596    8.9824  -43.9268 S.3         1 X8Z      -0.1756
      6 C3         32.1561    6.4596  -47.0380 C.3         1 X8Z      -0.0446
      7 N          30.5081    5.2083  -44.4290 N.am        1 X8Z      -0.2572
      8 C8         29.4811    4.3593  -43.8514 C.3         1 X8Z       0.0971
      9 C9         28.2803    5.0530  -43.3261 C.2         1 X8Z       0.0603
     10 O3         28.1789    6.3992  -43.3523 O.co2       1 X8Z      -0.5666
     11 O2         27.3577    4.3658  -42.6143 O.co2       1 X8Z      -0.5666
     12 C5         31.7870    4.9620  -43.8318 C.3         1 X8Z       0.0362
     13 C6         31.6522    3.6244  -43.0975 C.3         1 X8Z      -0.0288
     14 C7         30.1746    3.5846  -42.7058 C.3         1 X8Z      -0.0159
     15 H1         30.5927    7.7988  -46.5933 H           1 X8Z       0.0543
     16 H2         32.5948    8.6821  -45.5068 H           1 X8Z       0.0401
     17 H3         32.5739    7.4001  -44.3342 H           1 X8Z       0.0401
     18 H4         30.3023    9.6612  -44.9667 H           1 X8Z       0.1018
     19 H5         31.5977    5.9114  -47.7951 H           1 X8Z       0.0257
     20 H6         32.8667    5.7847  -46.5808 H           1 X8Z       0.0257
     21 H7         32.7282    7.2333  -47.5423 H           1 X8Z       0.0257
     22 H8         29.1584    3.6465  -44.6172 H           1 X8Z       0.0728
     23 H9         32.0232    5.7519  -43.1216 H           1 X8Z       0.0524
     24 H10        32.5886    4.8690  -44.5560 H           1 X8Z       0.0524
     25 H11        32.3067    3.5696  -42.2250 H           1 X8Z       0.0286
     26 H12        31.8812    2.7915  -43.7690 H           1 X8Z       0.0286
     27 H13        29.8028    2.5580  -42.6126 H           1 X8Z       0.0306
     28 H14        30.0563    4.0899  -41.7395 H           1 X8Z       0.0306
@<TRIPOS>BOND
     1     1     2   2
     2     2     3   1
     3     2     7  am
     4     3     4   1
     5     3     6   1
     6     4     5   1
     7     7     8   1
     8     7    12   1
     9     8     9   1
    10     8    14   1
    11     9    10  ar
    12     9    11  ar
    13    12    13   1
    14    13    14   1
    15     3    15   1
    16     4    16   1
    17     4    17   1
    18     5    18   1
    19     6    19   1
    20     6    20   1
    21     6    21   1
    22     8    22   1
    23    12    23   1
    24    12    24   1
    25    13    25   1
    26    13    26   1
    27    14    27   1
    28    14    28   1
@<TRIPOS>SUBSTRUCTURE
     1  X8Z      2

