@<TRIPOS>MOLECULE
2x97_ligand_069
    63    63
SMALL
GAST_HUCK
****
This file was generated by PARSER (from files_GN.cpp)

@<TRIPOS>ATOM
      1 CAP        28.2899   -6.7783   45.8585 C.ar        1 RX4      -0.0602
      2 CAN        28.9671   -6.4730   47.0523 C.ar        1 RX4      -0.0686
      3 CAM        29.5272   -7.4987   47.8319 C.ar        1 RX4      -0.0687
      4 CAO        29.4161   -8.8371   47.4142 C.ar        1 RX4      -0.0686
      5 CAQ        28.7509   -9.1431   46.2129 C.ar        1 RX4      -0.0602
      6 CBC        28.1787   -8.1206   45.4180 C.ar        1 RX4      -0.0393
      7 CAS        27.4781   -8.4758   44.1497 C.3         1 RX4       0.0205
      8 CBG        28.4728   -8.8553   42.9981 C.3         1 RX4       0.1158
      9 NAW        28.9643   -7.6406   42.4015 N.am        1 RX4      -0.2644
     10 CBB        30.1349   -7.4145   41.8094 C.2         1 RX4       0.2049
     11 OAI        30.9619   -8.3098   41.6987 O.2         1 RX4      -0.3944
     12 CBF        30.3777   -6.0796   41.2585 C.3         1 RX4       0.1421
     13 CAR        31.6031   -5.9226   40.2966 C.3         1 RX4       0.0406
     14 CAZ        31.5624   -6.7947   39.1099 C.2         1 RX4       0.0393
     15 OAK        31.1441   -6.2723   37.9270 O.co2       1 RX4      -0.5688
     16 OAG        32.3380   -7.9047   39.0673 O.co2       1 RX4      -0.5688
     17 NAU        30.2783   -5.1299   42.3431 N.am        1 RX4      -0.2643
     18 CAX        31.2226   -4.4673   42.9983 C.2         1 RX4       0.1752
     19 CAA        30.8258   -3.5869   44.0774 C.3         1 RX4       0.0258
     20 OAE        32.4073   -4.5419   42.6990 O.2         1 RX4      -0.3972
     21 P1         27.8059   -9.8611   41.8236 P.3         1 RX4       0.0153
     22 O4         26.9164  -10.8139   42.4414 O.co2       1 RX4      -0.6174
     23 O3         28.8473  -10.7227   41.3180 O.co2       1 RX4      -0.6174
     24 CAT        27.0107   -9.1334   40.5414 C.3         1 RX4       0.0350
     25 CBD        27.8736   -8.7745   39.2669 C.3         1 RX4       0.0618
     26 CAB        27.5430   -9.6894   38.0506 C.3         1 RX4      -0.0438
     27 CBA        27.7881   -7.3798   38.8355 C.2         1 RX4       0.1825
     28 OAH        28.7937   -6.8903   38.3036 O.2         1 RX4      -0.3966
     29 N          26.6575   -6.6867   38.9613 N.am        1 RX4      -0.2656
     30 CA         26.3945   -5.2950   38.6674 C.3         1 RX4       0.1278
     31 CB         27.6124   -4.3275   38.7267 C.3         1 RX4      -0.0244
     32 C          25.5805   -5.2047   37.4609 C.2         1 RX4       0.1989
     33 O          24.6100   -5.9433   37.3426 O.2         1 RX4      -0.3947
     34 NAD        25.7998   -4.3523   36.4865 N.am        1 RX4      -0.2990
     35 H1         27.8815   -6.0189   45.3061 H           1 RX4       0.0557
     36 H2         29.0556   -5.4992   47.3534 H           1 RX4       0.0599
     37 H3         30.0165   -7.2766   48.7007 H           1 RX4       0.0559
     38 H4         29.8218   -9.5857   47.9785 H           1 RX4       0.0599
     39 H5         28.6774  -10.1230   45.9252 H           1 RX4       0.0557
     40 H6         26.8358   -7.6512   43.8201 H           1 RX4       0.0465
     41 H7         26.8007   -9.3018   44.3876 H           1 RX4       0.0465
     42 H8         29.3067   -9.4127   43.4412 H           1 RX4       0.0788
     43 H9         28.3529   -6.8890   42.4260 H           1 RX4       0.1872
     44 H10        29.5120   -5.8526   40.6289 H           1 RX4       0.0819
     45 H11        32.5293   -6.1275   40.8321 H           1 RX4       0.0478
     46 H12        31.6375   -4.8819   39.9645 H           1 RX4       0.0478
     47 H13        29.3732   -4.9769   42.6706 H           1 RX4       0.1884
     48 H14        31.6922   -3.0828   44.5187 H           1 RX4       0.0467
     49 H15        30.3286   -4.1645   44.8577 H           1 RX4       0.0467
     50 H16        30.1393   -2.8252   43.7011 H           1 RX4       0.0467
     51 H17        26.5306   -8.2490   40.9638 H           1 RX4       0.0493
     52 H18        26.1982   -9.8034   40.2420 H           1 RX4       0.0493
     53 H19        28.9308   -8.9657   39.4940 H           1 RX4       0.0551
     54 H20        28.2202   -9.4800   37.2157 H           1 RX4       0.0257
     55 H21        26.5162   -9.5215   37.7193 H           1 RX4       0.0257
     56 H22        27.6603  -10.7415   38.3249 H           1 RX4       0.0257
     57 H23        25.8976   -7.1719   39.3334 H           1 RX4       0.1883
     58 H24        25.7458   -4.9616   39.4872 H           1 RX4       0.0797
     59 H25        27.2747   -3.2913   38.6443 H           1 RX4       0.0277
     60 H26        28.3227   -4.5092   37.9164 H           1 RX4       0.0277
     61 H27        28.1308   -4.4345   39.6848 H           1 RX4       0.0277
     62 H28        25.2209   -4.3460   35.7118 H           1 RX4       0.1815
     63 H29        26.5370   -3.7276   36.5320 H           1 RX4       0.1815
@<TRIPOS>BOND
     1     1     2  ar
     2     1     6  ar
     3     2     3  ar
     4     3     4  ar
     5     4     5  ar
     6     5     6  ar
     7     6     7   1
     8     7     8   1
     9     8     9   1
    10     8    21   1
    11     9    10  am
    12    10    11   2
    13    10    12   1
    14    12    13   1
    15    12    17   1
    16    13    14   1
    17    14    15  ar
    18    14    16  ar
    19    17    18  am
    20    18    19   1
    21    18    20   2
    22    21    22  ar
    23    21    23  ar
    24    21    24   1
    25    24    25   1
    26    25    26   1
    27    25    27   1
    28    27    28   2
    29    27    29  am
    30    29    30   1
    31    30    31   1
    32    30    32   1
    33    32    33   2
    34    32    34  am
    35     1    35   1
    36     2    36   1
    37     3    37   1
    38     4    38   1
    39     5    39   1
    40     7    40   1
    41     7    41   1
    42     8    42   1
    43     9    43   1
    44    12    44   1
    45    13    45   1
    46    13    46   1
    47    17    47   1
    48    19    48   1
    49    19    49   1
    50    19    50   1
    51    24    51   1
    52    24    52   1
    53    25    53   1
    54    26    54   1
    55    26    55   1
    56    26    56   1
    57    29    57   1
    58    30    58   1
    59    31    59   1
    60    31    60   1
    61    31    61   1
    62    34    62   1
    63    34    63   1
@<TRIPOS>SUBSTRUCTURE
     1  RX4      1

