@<TRIPOS>MOLECULE
2x97_ligand_018
    63    63
SMALL
GAST_HUCK
****
This file was generated by PARSER (from files_GN.cpp)

@<TRIPOS>ATOM
      1 CAP        28.7097  -11.5923   37.0126 C.ar        1 RX4      -0.0602
      2 CAN        28.2434  -12.8721   37.3705 C.ar        1 RX4      -0.0686
      3 CAM        28.9005  -13.6074   38.3698 C.ar        1 RX4      -0.0687
      4 CAO        30.0416  -13.0733   38.9991 C.ar        1 RX4      -0.0686
      5 CAQ        30.5272  -11.8119   38.6159 C.ar        1 RX4      -0.0602
      6 CBC        29.8542  -11.0367   37.6369 C.ar        1 RX4      -0.0393
      7 CAS        30.3617   -9.6884   37.2344 C.3         1 RX4       0.0205
      8 CBG        29.9665   -8.4947   38.1688 C.3         1 RX4       0.1158
      9 NAW        30.4130   -7.2805   37.5388 N.am        1 RX4      -0.2644
     10 CBB        29.7582   -6.1324   37.4228 C.2         1 RX4       0.2049
     11 OAI        28.6250   -6.0183   37.8832 O.2         1 RX4      -0.3944
     12 CBF        30.4242   -4.9825   36.7962 C.3         1 RX4       0.1421
     13 CAR        31.5268   -4.3802   37.7237 C.3         1 RX4       0.0406
     14 CAZ        32.2271   -3.1919   37.1944 C.2         1 RX4       0.0393
     15 OAK        32.0260   -2.7222   35.9434 O.co2       1 RX4      -0.5688
     16 OAG        33.1303   -2.5555   37.9724 O.co2       1 RX4      -0.5688
     17 NAU        29.4864   -3.9432   36.4488 N.am        1 RX4      -0.2643
     18 CAX        28.8349   -3.8140   35.2995 C.2         1 RX4       0.1752
     19 CAA        27.8699   -2.7486   35.1641 C.3         1 RX4       0.0258
     20 OAE        29.0138   -4.5877   34.3679 O.2         1 RX4      -0.3972
     21 P1         30.6355   -8.5289   39.7081 P.3         1 RX4       0.0153
     22 O4         32.0713   -8.6078   39.5920 O.co2       1 RX4      -0.6174
     23 O3         30.2534   -9.7588   40.3467 O.co2       1 RX4      -0.6174
     24 CAT        30.1678   -7.2897   40.7429 C.3         1 RX4       0.0350
     25 CBD        29.1212   -7.6627   41.8586 C.3         1 RX4       0.0618
     26 CAB        29.7814   -8.3333   43.1040 C.3         1 RX4      -0.0438
     27 CBA        28.3171   -6.5085   42.2591 C.2         1 RX4       0.1825
     28 OAH        27.1840   -6.4080   41.8082 O.2         1 RX4      -0.3966
     29 N          28.7953   -5.5921   43.0954 N.am        1 RX4      -0.2656
     30 CA         28.0918   -4.4429   43.5983 C.3         1 RX4       0.1278
     31 CB         26.9678   -4.8153   44.6070 C.3         1 RX4      -0.0244
     32 C          29.0554   -3.5386   44.2129 C.2         1 RX4       0.1989
     33 O          29.6926   -3.8776   45.2009 O.2         1 RX4      -0.3947
     34 NAD        29.2984   -2.3480   43.7084 N.am        1 RX4      -0.2990
     35 H1         28.2164  -11.0750   36.2801 H           1 RX4       0.0557
     36 H2         27.4242  -13.2649   36.9029 H           1 RX4       0.0599
     37 H3         28.5571  -14.5329   38.6412 H           1 RX4       0.0559
     38 H4         30.5184  -13.6043   39.7372 H           1 RX4       0.0599
     39 H5         31.3664  -11.4641   39.0674 H           1 RX4       0.0557
     40 H6         29.9737   -9.4758   36.2377 H           1 RX4       0.0465
     41 H7         31.4469   -9.7367   37.1162 H           1 RX4       0.0465
     42 H8         28.8807   -8.4990   38.2844 H           1 RX4       0.0788
     43 H9         31.3143   -7.2966   37.1711 H           1 RX4       0.1872
     44 H10        30.9137   -5.3414   35.8850 H           1 RX4       0.0819
     45 H11        32.2891   -5.1338   37.9240 H           1 RX4       0.0478
     46 H12        31.0763   -4.1089   38.6797 H           1 RX4       0.0478
     47 H13        29.3135   -3.2696   37.1308 H           1 RX4       0.1884
     48 H14        27.4511   -2.7111   34.1568 H           1 RX4       0.0467
     49 H15        28.3407   -1.7875   35.3803 H           1 RX4       0.0467
     50 H16        27.0533   -2.9115   35.8691 H           1 RX4       0.0467
     51 H17        29.7582   -6.4959   40.1166 H           1 RX4       0.0493
     52 H18        31.0669   -6.8805   41.2162 H           1 RX4       0.0493
     53 H19        28.4285   -8.4058   41.4387 H           1 RX4       0.0551
     54 H20        29.0292   -8.5407   43.8671 H           1 RX4       0.0257
     55 H21        30.5472   -7.6901   43.5335 H           1 RX4       0.0257
     56 H22        30.2553   -9.2829   42.8419 H           1 RX4       0.0257
     57 H23        29.7132   -5.7084   43.3918 H           1 RX4       0.1883
     58 H24        27.6257   -3.9390   42.7470 H           1 RX4       0.0797
     59 H25        26.4735   -3.9109   44.9699 H           1 RX4       0.0277
     60 H26        27.3750   -5.3571   45.4641 H           1 RX4       0.0277
     61 H27        26.2145   -5.4404   44.1330 H           1 RX4       0.0277
     62 H28        29.9660   -1.7708   44.1100 H           1 RX4       0.1815
     63 H29        28.8562   -2.0676   42.8927 H           1 RX4       0.1815
@<TRIPOS>BOND
     1     1     2  ar
     2     1     6  ar
     3     2     3  ar
     4     3     4  ar
     5     4     5  ar
     6     5     6  ar
     7     6     7   1
     8     7     8   1
     9     8     9   1
    10     8    21   1
    11     9    10  am
    12    10    11   2
    13    10    12   1
    14    12    13   1
    15    12    17   1
    16    13    14   1
    17    14    15  ar
    18    14    16  ar
    19    17    18  am
    20    18    19   1
    21    18    20   2
    22    21    22  ar
    23    21    23  ar
    24    21    24   1
    25    24    25   1
    26    25    26   1
    27    25    27   1
    28    27    28   2
    29    27    29  am
    30    29    30   1
    31    30    31   1
    32    30    32   1
    33    32    33   2
    34    32    34  am
    35     1    35   1
    36     2    36   1
    37     3    37   1
    38     4    38   1
    39     5    39   1
    40     7    40   1
    41     7    41   1
    42     8    42   1
    43     9    43   1
    44    12    44   1
    45    13    45   1
    46    13    46   1
    47    17    47   1
    48    19    48   1
    49    19    49   1
    50    19    50   1
    51    24    51   1
    52    24    52   1
    53    25    53   1
    54    26    54   1
    55    26    55   1
    56    26    56   1
    57    29    57   1
    58    30    58   1
    59    31    59   1
    60    31    60   1
    61    31    61   1
    62    34    62   1
    63    34    63   1
@<TRIPOS>SUBSTRUCTURE
     1  RX4      1

