@<TRIPOS>MOLECULE
2x97_ligand_062
    63    63
SMALL
GAST_HUCK
****
This file was generated by PARSER (from files_GN.cpp)

@<TRIPOS>ATOM
      1 CAP        26.3471   -6.5554   44.2368 C.ar        1 RX4      -0.0602
      2 CAN        26.9346   -6.9402   45.4553 C.ar        1 RX4      -0.0686
      3 CAM        27.7980   -6.0571   46.1347 C.ar        1 RX4      -0.0687
      4 CAO        28.0294   -4.7681   45.6237 C.ar        1 RX4      -0.0686
      5 CAQ        27.4454   -4.3871   44.4023 C.ar        1 RX4      -0.0602
      6 CBC        26.6131   -5.2828   43.6838 C.ar        1 RX4      -0.0393
      7 CAS        26.1436   -4.9344   42.3174 C.3         1 RX4       0.0205
      8 CBG        26.9738   -5.6089   41.1649 C.3         1 RX4       0.1158
      9 NAW        28.3719   -5.7517   41.5170 N.am        1 RX4      -0.2644
     10 CBB        28.9086   -6.7527   42.2078 C.2         1 RX4       0.2049
     11 OAI        28.1894   -7.6257   42.6795 O.2         1 RX4      -0.3944
     12 CBF        30.3407   -6.7698   42.4902 C.3         1 RX4       0.1421
     13 CAR        30.9402   -8.1898   42.8040 C.3         1 RX4       0.0406
     14 CAZ        31.4258   -8.3970   44.1839 C.2         1 RX4       0.0393
     15 OAK        30.5923   -8.2802   45.2467 O.co2       1 RX4      -0.5688
     16 OAG        32.7178   -8.7167   44.4144 O.co2       1 RX4      -0.5688
     17 NAU        30.5649   -5.8070   43.5383 N.am        1 RX4      -0.2643
     18 CAX        31.5406   -4.9141   43.6237 C.2         1 RX4       0.1752
     19 CAA        31.5177   -3.9521   44.7062 C.3         1 RX4       0.0258
     20 OAE        32.4362   -4.8519   42.7935 O.2         1 RX4      -0.3972
     21 P1         26.8373   -4.8044   39.7019 P.3         1 RX4       0.0153
     22 O4         26.9680   -3.3898   39.9584 O.co2       1 RX4      -0.6174
     23 O3         25.4744   -4.9265   39.2435 O.co2       1 RX4      -0.6174
     24 CAT        27.9284   -5.1602   38.4850 C.3         1 RX4       0.0350
     25 CBD        27.3387   -5.7663   37.1707 C.3         1 RX4       0.0618
     26 CAB        28.3882   -5.7410   36.0153 C.3         1 RX4      -0.0438
     27 CBA        26.8192   -7.1233   37.3070 C.2         1 RX4       0.1825
     28 OAH        26.0119   -7.5314   36.4699 O.2         1 RX4      -0.3966
     29 N          27.3839   -7.9820   38.1658 N.am        1 RX4      -0.2656
     30 CA         27.1763   -9.3934   38.2740 C.3         1 RX4       0.1278
     31 CB         28.4125  -10.1160   37.6833 C.3         1 RX4      -0.0244
     32 C          26.9367   -9.7450   39.6665 C.2         1 RX4       0.1989
     33 O          25.8782  -10.2539   40.0005 O.2         1 RX4      -0.3947
     34 NAD        27.8364   -9.5676   40.6017 N.am        1 RX4      -0.2990
     35 H1         25.7561   -7.2263   43.7445 H           1 RX4       0.0557
     36 H2         26.7538   -7.8678   45.8492 H           1 RX4       0.0599
     37 H3         28.2405   -6.3382   47.0158 H           1 RX4       0.0559
     38 H4         28.6339   -4.1117   46.1247 H           1 RX4       0.0599
     39 H5         27.6596   -3.4609   44.0251 H           1 RX4       0.0557
     40 H6         26.1636   -3.8473   42.2235 H           1 RX4       0.0465
     41 H7         25.0950   -5.2225   42.2220 H           1 RX4       0.0465
     42 H8         26.5502   -6.6036   40.9904 H           1 RX4       0.0788
     43 H9         28.9671   -5.0273   41.2501 H           1 RX4       0.1872
     44 H10        30.8271   -6.4274   41.5713 H           1 RX4       0.0819
     45 H11        31.7674   -8.3705   42.1198 H           1 RX4       0.0478
     46 H12        30.2239   -8.9936   42.5954 H           1 RX4       0.0478
     47 H13        29.9306   -5.8110   44.2704 H           1 RX4       0.1884
     48 H14        32.3873   -3.2856   44.6801 H           1 RX4       0.0467
     49 H15        31.5151   -4.4723   45.6691 H           1 RX4       0.0467
     50 H16        30.6167   -3.3365   44.6328 H           1 RX4       0.0467
     51 H17        28.7021   -5.8142   38.8799 H           1 RX4       0.0493
     52 H18        28.4286   -4.2357   38.2070 H           1 RX4       0.0493
     53 H19        26.5263   -5.1067   36.8387 H           1 RX4       0.0551
     54 H20        27.9275   -6.0481   35.0670 H           1 RX4       0.0257
     55 H21        29.2283   -6.4116   36.2277 H           1 RX4       0.0257
     56 H22        28.7820   -4.7313   35.8807 H           1 RX4       0.0257
     57 H23        28.0663   -7.6092   38.7538 H           1 RX4       0.1883
     58 H24        26.3088   -9.6955   37.6737 H           1 RX4       0.0797
     59 H25        28.2735  -11.1968   37.7255 H           1 RX4       0.0277
     60 H26        29.3196   -9.8580   38.2327 H           1 RX4       0.0277
     61 H27        28.5482   -9.8253   36.6413 H           1 RX4       0.0277
     62 H28        27.6315   -9.8278   41.5100 H           1 RX4       0.1815
     63 H29        28.7045   -9.1953   40.3885 H           1 RX4       0.1815
@<TRIPOS>BOND
     1     1     2  ar
     2     1     6  ar
     3     2     3  ar
     4     3     4  ar
     5     4     5  ar
     6     5     6  ar
     7     6     7   1
     8     7     8   1
     9     8     9   1
    10     8    21   1
    11     9    10  am
    12    10    11   2
    13    10    12   1
    14    12    13   1
    15    12    17   1
    16    13    14   1
    17    14    15  ar
    18    14    16  ar
    19    17    18  am
    20    18    19   1
    21    18    20   2
    22    21    22  ar
    23    21    23  ar
    24    21    24   1
    25    24    25   1
    26    25    26   1
    27    25    27   1
    28    27    28   2
    29    27    29  am
    30    29    30   1
    31    30    31   1
    32    30    32   1
    33    32    33   2
    34    32    34  am
    35     1    35   1
    36     2    36   1
    37     3    37   1
    38     4    38   1
    39     5    39   1
    40     7    40   1
    41     7    41   1
    42     8    42   1
    43     9    43   1
    44    12    44   1
    45    13    45   1
    46    13    46   1
    47    17    47   1
    48    19    48   1
    49    19    49   1
    50    19    50   1
    51    24    51   1
    52    24    52   1
    53    25    53   1
    54    26    54   1
    55    26    55   1
    56    26    56   1
    57    29    57   1
    58    30    58   1
    59    31    59   1
    60    31    60   1
    61    31    61   1
    62    34    62   1
    63    34    63   1
@<TRIPOS>SUBSTRUCTURE
     1  RX4      1

