@<TRIPOS>MOLECULE
2x97_ligand_029
    63    63
SMALL
GAST_HUCK
****
This file was generated by PARSER (from files_GN.cpp)

@<TRIPOS>ATOM
      1 CAP        26.7729   -5.0447   44.1592 C.ar        1 RX4      -0.0602
      2 CAN        26.6825   -3.6604   44.3886 C.ar        1 RX4      -0.0686
      3 CAM        26.4874   -2.7803   43.3095 C.ar        1 RX4      -0.0687
      4 CAO        26.3438   -3.2924   42.0079 C.ar        1 RX4      -0.0686
      5 CAQ        26.4102   -4.6815   41.7838 C.ar        1 RX4      -0.0602
      6 CBC        26.6638   -5.5783   42.8523 C.ar        1 RX4      -0.0393
      7 CAS        26.7672   -7.0513   42.6276 C.3         1 RX4       0.0205
      8 CBG        28.2076   -7.6497   42.4456 C.3         1 RX4       0.1158
      9 NAW        29.1258   -7.1759   43.4470 N.am        1 RX4      -0.2644
     10 CBB        30.2613   -7.7596   43.8265 C.2         1 RX4       0.2049
     11 OAI        30.6560   -8.7849   43.2731 O.2         1 RX4      -0.3944
     12 CBF        30.9825   -7.2333   44.9954 C.3         1 RX4       0.1421
     13 CAR        31.9223   -6.0013   44.7361 C.3         1 RX4       0.0406
     14 CAZ        31.5205   -5.0790   43.6535 C.2         1 RX4       0.0393
     15 OAK        32.4406   -4.6249   42.7649 O.co2       1 RX4      -0.5688
     16 OAG        30.2623   -4.5721   43.5982 O.co2       1 RX4      -0.5688
     17 NAU        31.6778   -8.2630   45.7292 N.am        1 RX4      -0.2643
     18 CAX        32.5700   -9.1280   45.2596 C.2         1 RX4       0.1752
     19 CAA        33.0589  -10.1786   46.1189 C.3         1 RX4       0.0258
     20 OAE        32.9411   -9.0997   44.0910 O.2         1 RX4      -0.3972
     21 P1         28.8195   -7.4870   40.8809 P.3         1 RX4       0.0153
     22 O4         30.2607   -7.5099   40.8609 O.co2       1 RX4      -0.6174
     23 O3         28.5200   -6.1901   40.3280 O.co2       1 RX4      -0.6174
     24 CAT        28.2879   -8.7534   39.9102 C.3         1 RX4       0.0350
     25 CBD        28.0051   -8.4490   38.4003 C.3         1 RX4       0.0618
     26 CAB        27.6610   -9.7549   37.6292 C.3         1 RX4      -0.0438
     27 CBA        26.9303   -7.4731   38.2081 C.2         1 RX4       0.1825
     28 OAH        25.8821   -7.6064   38.8346 O.2         1 RX4      -0.3966
     29 N          27.0811   -6.4751   37.3485 N.am        1 RX4      -0.2656
     30 CA         26.1402   -5.4210   37.0778 C.3         1 RX4       0.1278
     31 CB         26.8139   -4.4136   36.1148 C.3         1 RX4      -0.0244
     32 C          24.8567   -5.8839   36.5506 C.2         1 RX4       0.1989
     33 O          24.6539   -7.0571   36.2559 O.2         1 RX4      -0.3947
     34 NAD        23.8615   -5.0402   36.3786 N.am        1 RX4      -0.2990
     35 H1         26.9108   -5.6674   44.9581 H           1 RX4       0.0557
     36 H2         26.7671   -3.2919   45.3382 H           1 RX4       0.0599
     37 H3         26.4328   -1.7720   43.4737 H           1 RX4       0.0559
     38 H4         26.1940   -2.6538   41.2246 H           1 RX4       0.0599
     39 H5         26.2705   -5.0289   40.8325 H           1 RX4       0.0557
     40 H6         26.1469   -7.3285   41.7717 H           1 RX4       0.0465
     41 H7         26.3017   -7.5523   43.4810 H           1 RX4       0.0465
     42 H8         28.0939   -8.7273   42.6188 H           1 RX4       0.0788
     43 H9         28.8533   -6.3947   43.9536 H           1 RX4       0.1872
     44 H10        30.2164   -6.8788   45.6939 H           1 RX4       0.0819
     45 H11        32.9407   -6.3417   44.5339 H           1 RX4       0.0478
     46 H12        31.9674   -5.4116   45.6584 H           1 RX4       0.0478
     47 H13        31.4167   -8.3680   46.6618 H           1 RX4       0.1884
     48 H14        33.6683  -10.9014   45.5665 H           1 RX4       0.0467
     49 H15        32.2142  -10.7073   46.5710 H           1 RX4       0.0467
     50 H16        33.6728   -9.7349   46.9039 H           1 RX4       0.0467
     51 H17        27.3759   -9.1733   40.3494 H           1 RX4       0.0493
     52 H18        29.0464   -9.5431   39.9767 H           1 RX4       0.0493
     53 H19        28.9351   -8.0663   37.9629 H           1 RX4       0.0551
     54 H20        27.5088   -9.5395   36.5704 H           1 RX4       0.0257
     55 H21        26.7573  -10.2209   38.0283 H           1 RX4       0.0257
     56 H22        28.4827  -10.4683   37.7131 H           1 RX4       0.0257
     57 H23        27.9278   -6.4400   36.8707 H           1 RX4       0.1883
     58 H24        25.9492   -4.9039   38.0265 H           1 RX4       0.0797
     59 H25        26.1691   -3.5538   35.9385 H           1 RX4       0.0277
     60 H26        27.0340   -4.8889   35.1549 H           1 RX4       0.0277
     61 H27        27.7487   -4.0496   36.5452 H           1 RX4       0.0277
     62 H28        23.0126   -5.3549   36.0307 H           1 RX4       0.1815
     63 H29        23.9834   -4.0927   36.5669 H           1 RX4       0.1815
@<TRIPOS>BOND
     1     1     2  ar
     2     1     6  ar
     3     2     3  ar
     4     3     4  ar
     5     4     5  ar
     6     5     6  ar
     7     6     7   1
     8     7     8   1
     9     8     9   1
    10     8    21   1
    11     9    10  am
    12    10    11   2
    13    10    12   1
    14    12    13   1
    15    12    17   1
    16    13    14   1
    17    14    15  ar
    18    14    16  ar
    19    17    18  am
    20    18    19   1
    21    18    20   2
    22    21    22  ar
    23    21    23  ar
    24    21    24   1
    25    24    25   1
    26    25    26   1
    27    25    27   1
    28    27    28   2
    29    27    29  am
    30    29    30   1
    31    30    31   1
    32    30    32   1
    33    32    33   2
    34    32    34  am
    35     1    35   1
    36     2    36   1
    37     3    37   1
    38     4    38   1
    39     5    39   1
    40     7    40   1
    41     7    41   1
    42     8    42   1
    43     9    43   1
    44    12    44   1
    45    13    45   1
    46    13    46   1
    47    17    47   1
    48    19    48   1
    49    19    49   1
    50    19    50   1
    51    24    51   1
    52    24    52   1
    53    25    53   1
    54    26    54   1
    55    26    55   1
    56    26    56   1
    57    29    57   1
    58    30    58   1
    59    31    59   1
    60    31    60   1
    61    31    61   1
    62    34    62   1
    63    34    63   1
@<TRIPOS>SUBSTRUCTURE
     1  RX4      1

