@<TRIPOS>MOLECULE
2x97_ligand_000
    63    63
SMALL
GAST_HUCK
****
This file was generated by PARSER (from files_GN.cpp)

@<TRIPOS>ATOM
      1 CAP        28.5939   -9.6290   36.5317 C.ar        1 RX4      -0.0602
      2 CAN        29.6990  -10.3792   36.0863 C.ar        1 RX4      -0.0686
      3 CAM        30.6993  -10.7603   36.9986 C.ar        1 RX4      -0.0687
      4 CAO        30.6058  -10.3771   38.3464 C.ar        1 RX4      -0.0686
      5 CAQ        29.5001   -9.6262   38.7905 C.ar        1 RX4      -0.0602
      6 CBC        28.4700   -9.2497   37.8874 C.ar        1 RX4      -0.0393
      7 CAS        27.2658   -8.5300   38.3602 C.3         1 RX4       0.0205
      8 CBG        27.1752   -6.9987   38.0176 C.3         1 RX4       0.1158
      9 NAW        28.3496   -6.3914   37.4396 N.am        1 RX4      -0.2644
     10 CBB        29.4369   -5.8875   38.0083 C.2         1 RX4       0.2049
     11 OAI        29.6200   -6.0084   39.2179 O.2         1 RX4      -0.3944
     12 CBF        30.3853   -5.1220   37.1781 C.3         1 RX4       0.1421
     13 CAR        31.6092   -4.5305   37.9488 C.3         1 RX4       0.0406
     14 CAZ        32.3193   -3.3990   37.3107 C.2         1 RX4       0.0393
     15 OAK        32.1235   -3.0499   36.0190 O.co2       1 RX4      -0.5688
     16 OAG        33.0844   -2.5707   38.0594 O.co2       1 RX4      -0.5688
     17 NAU        29.6756   -4.0171   36.5736 N.am        1 RX4      -0.2643
     18 CAX        29.2362   -3.9283   35.3277 C.2         1 RX4       0.1752
     19 CAA        28.5729   -2.7189   34.8983 C.3         1 RX4       0.0258
     20 OAE        29.3685   -4.8547   34.5298 O.2         1 RX4      -0.3972
     21 P1         26.4777   -6.0482   39.2201 P.3         1 RX4       0.0153
     22 O4         25.1026   -6.4738   39.3120 O.co2       1 RX4      -0.6174
     23 O3         26.3926   -4.6788   38.7752 O.co2       1 RX4      -0.6174
     24 CAT        27.1667   -6.1783   40.7471 C.3         1 RX4       0.0350
     25 CBD        27.8107   -4.9082   41.3985 C.3         1 RX4       0.0618
     26 CAB        26.7261   -3.8741   41.8436 C.3         1 RX4      -0.0438
     27 CBA        28.6930   -5.2245   42.5355 C.2         1 RX4       0.1825
     28 OAH        28.6352   -6.3104   43.1140 O.2         1 RX4      -0.3966
     29 N          29.5272   -4.2929   42.9962 N.am        1 RX4      -0.2656
     30 CA         30.3872   -4.3598   44.1568 C.3         1 RX4       0.1278
     31 CB         29.6252   -4.9085   45.4013 C.3         1 RX4      -0.0244
     32 C          31.6635   -5.0145   43.8471 C.2         1 RX4       0.1989
     33 O          32.2399   -4.7557   42.8041 O.2         1 RX4      -0.3947
     34 NAD        32.2973   -5.8186   44.6837 N.am        1 RX4      -0.2990
     35 H1         27.8620   -9.3793   35.8591 H           1 RX4       0.0557
     36 H2         29.7699  -10.6559   35.1024 H           1 RX4       0.0599
     37 H3         31.4991  -11.3192   36.6783 H           1 RX4       0.0559
     38 H4         31.3325  -10.6492   39.0127 H           1 RX4       0.0599
     39 H5         29.4500   -9.3631   39.7748 H           1 RX4       0.0557
     40 H6         27.1479   -8.7062   39.4358 H           1 RX4       0.0465
     41 H7         26.4008   -9.0374   37.9180 H           1 RX4       0.0465
     42 H8         26.4662   -6.9424   37.1896 H           1 RX4       0.0788
     43 H9         28.2991   -6.2685   36.4783 H           1 RX4       0.1872
     44 H10        30.7801   -5.8098   36.4180 H           1 RX4       0.0819
     45 H11        32.3466   -5.3195   38.1318 H           1 RX4       0.0478
     46 H12        31.2578   -4.1813   38.9245 H           1 RX4       0.0478
     47 H13        29.5033   -3.2562   37.1510 H           1 RX4       0.1884
     48 H14        28.2528   -2.7818   33.8550 H           1 RX4       0.0467
     49 H15        29.2556   -1.8710   34.9955 H           1 RX4       0.0467
     50 H16        27.6914   -2.5368   35.5187 H           1 RX4       0.0467
     51 H17        27.9501   -6.9349   40.6652 H           1 RX4       0.0493
     52 H18        26.4226   -6.5861   41.4420 H           1 RX4       0.0493
     53 H19        28.4443   -4.4412   40.6376 H           1 RX4       0.0551
     54 H20        27.1865   -2.9734   42.2622 H           1 RX4       0.0257
     55 H21        26.0638   -4.3075   42.6035 H           1 RX4       0.0257
     56 H22        26.1174   -3.5679   40.9926 H           1 RX4       0.0257
     57 H23        29.5463   -3.4472   42.5107 H           1 RX4       0.1883
     58 H24        30.6483   -3.3215   44.3968 H           1 RX4       0.0797
     59 H25        30.2475   -4.8191   46.2972 H           1 RX4       0.0277
     60 H26        29.3687   -5.9656   45.2666 H           1 RX4       0.0277
     61 H27        28.7004   -4.3437   45.5620 H           1 RX4       0.0277
     62 H28        33.1749   -6.1619   44.4497 H           1 RX4       0.1815
     63 H29        31.9219   -6.0364   45.5517 H           1 RX4       0.1815
@<TRIPOS>BOND
     1     1     2  ar
     2     1     6  ar
     3     2     3  ar
     4     3     4  ar
     5     4     5  ar
     6     5     6  ar
     7     6     7   1
     8     7     8   1
     9     8     9   1
    10     8    21   1
    11     9    10  am
    12    10    11   2
    13    10    12   1
    14    12    13   1
    15    12    17   1
    16    13    14   1
    17    14    15  ar
    18    14    16  ar
    19    17    18  am
    20    18    19   1
    21    18    20   2
    22    21    22  ar
    23    21    23  ar
    24    21    24   1
    25    24    25   1
    26    25    26   1
    27    25    27   1
    28    27    28   2
    29    27    29  am
    30    29    30   1
    31    30    31   1
    32    30    32   1
    33    32    33   2
    34    32    34  am
    35     1    35   1
    36     2    36   1
    37     3    37   1
    38     4    38   1
    39     5    39   1
    40     7    40   1
    41     7    41   1
    42     8    42   1
    43     9    43   1
    44    12    44   1
    45    13    45   1
    46    13    46   1
    47    17    47   1
    48    19    48   1
    49    19    49   1
    50    19    50   1
    51    24    51   1
    52    24    52   1
    53    25    53   1
    54    26    54   1
    55    26    55   1
    56    26    56   1
    57    29    57   1
    58    30    58   1
    59    31    59   1
    60    31    60   1
    61    31    61   1
    62    34    62   1
    63    34    63   1
@<TRIPOS>SUBSTRUCTURE
     1  RX4      1

