@<TRIPOS>MOLECULE
2x97_ligand_001
    63    63
SMALL
GAST_HUCK
****
This file was generated by PARSER (from files_GN.cpp)

@<TRIPOS>ATOM
      1 CAP        29.3376   -7.4176   37.9398 C.ar        1 RX4      -0.0602
      2 CAN        30.7079   -7.1013   37.8660 C.ar        1 RX4      -0.0686
      3 CAM        31.5829   -7.5013   38.8932 C.ar        1 RX4      -0.0687
      4 CAO        31.0913   -8.2454   39.9804 C.ar        1 RX4      -0.0686
      5 CAQ        29.7292   -8.5859   40.0383 C.ar        1 RX4      -0.0602
      6 CBC        28.8276   -8.1584   39.0332 C.ar        1 RX4      -0.0393
      7 CAS        27.3717   -8.4673   39.1531 C.3         1 RX4       0.0205
      8 CBG        26.4313   -7.3280   39.6709 C.3         1 RX4       0.1158
      9 NAW        25.9698   -6.5025   38.5858 N.am        1 RX4      -0.2644
     10 CBB        24.8449   -5.7860   38.5608 C.2         1 RX4       0.2049
     11 OAI        24.0288   -5.8803   39.4720 O.2         1 RX4      -0.3944
     12 CBF        24.5154   -4.8830   37.4602 C.3         1 RX4       0.1421
     13 CAR        23.3915   -5.4853   36.5592 C.3         1 RX4       0.0406
     14 CAZ        23.7428   -6.7252   35.8309 C.2         1 RX4       0.0393
     15 OAK        23.1218   -7.0352   34.6710 O.co2       1 RX4      -0.5688
     16 OAG        24.3613   -7.7388   36.4770 O.co2       1 RX4      -0.5688
     17 NAU        25.6322   -4.4759   36.6464 N.am        1 RX4      -0.2643
     18 CAX        26.7629   -3.9160   37.0621 C.2         1 RX4       0.1752
     19 CAA        27.7736   -3.5905   36.0836 C.3         1 RX4       0.0258
     20 OAE        26.9878   -3.7009   38.2453 O.2         1 RX4      -0.3972
     21 P1         27.0241   -6.3610   40.9101 P.3         1 RX4       0.0153
     22 O4         26.0067   -5.3900   41.2232 O.co2       1 RX4      -0.6174
     23 O3         28.1361   -5.5636   40.4651 O.co2       1 RX4      -0.6174
     24 CAT        27.4553   -7.2009   42.2960 C.3         1 RX4       0.0350
     25 CBD        26.9255   -6.6294   43.6534 C.3         1 RX4       0.0618
     26 CAB        27.2522   -7.5926   44.8282 C.3         1 RX4      -0.0438
     27 CBA        27.4270   -5.2768   43.9123 C.2         1 RX4       0.1825
     28 OAH        28.6385   -5.1132   43.9827 O.2         1 RX4      -0.3966
     29 N          26.5899   -4.2431   43.9022 N.am        1 RX4      -0.2656
     30 CA         26.9117   -2.8470   43.7586 C.3         1 RX4       0.1278
     31 CB         25.6822   -1.9973   44.1885 C.3         1 RX4      -0.0244
     32 C          28.1041   -2.4210   44.4735 C.2         1 RX4       0.1989
     33 O          28.1300   -2.4461   45.6952 O.2         1 RX4      -0.3947
     34 NAD        29.1785   -2.0398   43.8165 N.am        1 RX4      -0.2990
     35 H1         28.7173   -7.1045   37.1905 H           1 RX4       0.0557
     36 H2         31.0704   -6.5719   37.0696 H           1 RX4       0.0599
     37 H3         32.5746   -7.2598   38.8506 H           1 RX4       0.0559
     38 H4         31.7243   -8.5285   40.7323 H           1 RX4       0.0599
     39 H5         29.3936   -9.1278   40.8393 H           1 RX4       0.0557
     40 H6         27.2407   -9.3210   39.8215 H           1 RX4       0.0465
     41 H7         27.0113   -8.8071   38.1756 H           1 RX4       0.0465
     42 H8         25.5599   -7.8434   40.0886 H           1 RX4       0.0788
     43 H9         26.5405   -6.4561   37.8034 H           1 RX4       0.1872
     44 H10        24.1097   -3.9712   37.9075 H           1 RX4       0.0819
     45 H11        23.0992   -4.7320   35.8276 H           1 RX4       0.0478
     46 H12        22.5030   -5.6991   37.1673 H           1 RX4       0.0478
     47 H13        25.5348   -4.5992   35.6916 H           1 RX4       0.1884
     48 H14        28.6991   -3.2392   36.5549 H           1 RX4       0.0467
     49 H15        27.4015   -2.8036   35.4256 H           1 RX4       0.0467
     50 H16        28.0105   -4.4745   35.4853 H           1 RX4       0.0467
     51 H17        28.5468   -7.2564   42.3324 H           1 RX4       0.0493
     52 H18        27.0911   -8.2218   42.1919 H           1 RX4       0.0493
     53 H19        25.8294   -6.6073   43.5900 H           1 RX4       0.0551
     54 H20        26.8165   -7.2230   45.7594 H           1 RX4       0.0257
     55 H21        28.3300   -7.7037   44.9643 H           1 RX4       0.0257
     56 H22        26.8272   -8.5801   44.6285 H           1 RX4       0.0257
     57 H23        25.6485   -4.4605   43.8182 H           1 RX4       0.1883
     58 H24        27.0482   -2.6683   42.6873 H           1 RX4       0.0797
     59 H25        25.9071   -0.9293   44.1232 H           1 RX4       0.0277
     60 H26        25.3889   -2.2336   45.2148 H           1 RX4       0.0277
     61 H27        24.8378   -2.2027   43.5276 H           1 RX4       0.0277
     62 H28        29.9798   -1.7545   44.2799 H           1 RX4       0.1815
     63 H29        29.1773   -2.0460   42.8479 H           1 RX4       0.1815
@<TRIPOS>BOND
     1     1     2  ar
     2     1     6  ar
     3     2     3  ar
     4     3     4  ar
     5     4     5  ar
     6     5     6  ar
     7     6     7   1
     8     7     8   1
     9     8     9   1
    10     8    21   1
    11     9    10  am
    12    10    11   2
    13    10    12   1
    14    12    13   1
    15    12    17   1
    16    13    14   1
    17    14    15  ar
    18    14    16  ar
    19    17    18  am
    20    18    19   1
    21    18    20   2
    22    21    22  ar
    23    21    23  ar
    24    21    24   1
    25    24    25   1
    26    25    26   1
    27    25    27   1
    28    27    28   2
    29    27    29  am
    30    29    30   1
    31    30    31   1
    32    30    32   1
    33    32    33   2
    34    32    34  am
    35     1    35   1
    36     2    36   1
    37     3    37   1
    38     4    38   1
    39     5    39   1
    40     7    40   1
    41     7    41   1
    42     8    42   1
    43     9    43   1
    44    12    44   1
    45    13    45   1
    46    13    46   1
    47    17    47   1
    48    19    48   1
    49    19    49   1
    50    19    50   1
    51    24    51   1
    52    24    52   1
    53    25    53   1
    54    26    54   1
    55    26    55   1
    56    26    56   1
    57    29    57   1
    58    30    58   1
    59    31    59   1
    60    31    60   1
    61    31    61   1
    62    34    62   1
    63    34    63   1
@<TRIPOS>SUBSTRUCTURE
     1  RX4      1

