@<TRIPOS>MOLECULE
2x97_ligand_011
    63    63
SMALL
GAST_HUCK
****
This file was generated by PARSER (from files_GN.cpp)

@<TRIPOS>ATOM
      1 CAP        28.7346  -10.7573   36.4322 C.ar        1 RX4      -0.0602
      2 CAN        28.0641  -11.9036   35.9675 C.ar        1 RX4      -0.0686
      3 CAM        28.1306  -13.0998   36.6987 C.ar        1 RX4      -0.0687
      4 CAO        28.8668  -13.1495   37.8977 C.ar        1 RX4      -0.0686
      5 CAQ        29.5451  -12.0016   38.3585 C.ar        1 RX4      -0.0602
      6 CBC        29.4879  -10.7875   37.6317 C.ar        1 RX4      -0.0393
      7 CAS        30.2821   -9.5908   38.0330 C.3         1 RX4       0.0205
      8 CBG        29.4524   -8.2908   38.3301 C.3         1 RX4       0.1158
      9 NAW        30.2412   -7.1647   37.8891 N.am        1 RX4      -0.2644
     10 CBB        29.8086   -5.9225   37.7188 C.2         1 RX4       0.2049
     11 OAI        28.7196   -5.5853   38.1730 O.2         1 RX4      -0.3944
     12 CBF        30.5991   -4.9605   36.9632 C.3         1 RX4       0.1421
     13 CAR        31.7427   -4.3700   37.8398 C.3         1 RX4       0.0406
     14 CAZ        32.4368   -3.2077   37.2543 C.2         1 RX4       0.0393
     15 OAK        32.3109   -2.8473   35.9543 O.co2       1 RX4      -0.5688
     16 OAG        33.2093   -2.4471   38.0589 O.co2       1 RX4      -0.5688
     17 NAU        29.7616   -3.8961   36.4710 N.am        1 RX4      -0.2643
     18 CAX        29.0756   -3.8870   35.3375 C.2         1 RX4       0.1752
     19 CAA        28.1490   -2.8062   35.1011 C.3         1 RX4       0.0258
     20 OAE        29.1689   -4.7923   34.5170 O.2         1 RX4      -0.3972
     21 P1         28.8913   -8.1474   39.9178 P.3         1 RX4       0.0153
     22 O4         29.3110   -6.8811   40.4689 O.co2       1 RX4      -0.6174
     23 O3         29.5792   -9.0527   40.8162 O.co2       1 RX4      -0.6174
     24 CAT        27.2366   -8.3430   40.1358 C.3         1 RX4       0.0350
     25 CBD        26.2744   -7.1024   40.2639 C.3         1 RX4       0.0618
     26 CAB        26.5100   -6.2969   41.5839 C.3         1 RX4      -0.0438
     27 CBA        26.1847   -6.2523   39.0713 C.2         1 RX4       0.1825
     28 OAH        26.1686   -5.0233   39.1905 O.2         1 RX4      -0.3966
     29 N          25.9997   -6.7969   37.8747 N.am        1 RX4      -0.2656
     30 CA         25.8520   -6.1080   36.6223 C.3         1 RX4       0.1278
     31 CB         26.9374   -6.5996   35.6317 C.3         1 RX4      -0.0244
     32 C          24.4892   -6.3190   36.1631 C.2         1 RX4       0.1989
     33 O          24.1529   -7.3736   35.6342 O.2         1 RX4      -0.3947
     34 NAD        23.5601   -5.3965   36.3186 N.am        1 RX4      -0.2990
     35 H1         28.6939   -9.9050   35.8691 H           1 RX4       0.0557
     36 H2         27.5364  -11.8663   35.0904 H           1 RX4       0.0599
     37 H3         27.6480  -13.9343   36.3566 H           1 RX4       0.0559
     38 H4         28.9129  -14.0220   38.4287 H           1 RX4       0.0599
     39 H5         30.0912  -12.0647   39.2209 H           1 RX4       0.0557
     40 H6         30.9644   -9.4098   37.1952 H           1 RX4       0.0465
     41 H7         30.9329   -9.8167   38.8813 H           1 RX4       0.0465
     42 H8         28.5751   -8.3184   37.6776 H           1 RX4       0.0788
     43 H9         31.1303   -7.3602   37.5434 H           1 RX4       0.1872
     44 H10        31.0592   -5.4926   36.1193 H           1 RX4       0.0819
     45 H11        32.4953   -5.1421   38.0286 H           1 RX4       0.0478
     46 H12        31.3331   -4.0632   38.8077 H           1 RX4       0.0478
     47 H13        29.5877   -3.1673   37.0895 H           1 RX4       0.1884
     48 H14        27.6625   -2.8996   34.1275 H           1 RX4       0.0467
     49 H15        28.6805   -1.8533   35.1296 H           1 RX4       0.0467
     50 H16        27.3783   -2.8059   35.8759 H           1 RX4       0.0467
     51 H17        27.1001   -8.9444   41.0406 H           1 RX4       0.0493
     52 H18        26.8812   -8.9755   39.3191 H           1 RX4       0.0493
     53 H19        25.2701   -7.5350   40.3673 H           1 RX4       0.0551
     54 H20        25.7037   -5.5703   41.7296 H           1 RX4       0.0257
     55 H21        27.4504   -5.7450   41.5446 H           1 RX4       0.0257
     56 H22        26.5257   -6.9622   42.4490 H           1 RX4       0.0257
     57 H23        25.9607   -7.7699   37.8402 H           1 RX4       0.1883
     58 H24        26.0133   -5.0284   36.7422 H           1 RX4       0.0797
     59 H25        26.8034   -6.1244   34.6578 H           1 RX4       0.0277
     60 H26        26.8817   -7.6856   35.5038 H           1 RX4       0.0277
     61 H27        27.9322   -6.3389   36.0078 H           1 RX4       0.0277
     62 H28        22.6496   -5.5678   36.0287 H           1 RX4       0.1815
     63 H29        23.7809   -4.5413   36.7303 H           1 RX4       0.1815
@<TRIPOS>BOND
     1     1     2  ar
     2     1     6  ar
     3     2     3  ar
     4     3     4  ar
     5     4     5  ar
     6     5     6  ar
     7     6     7   1
     8     7     8   1
     9     8     9   1
    10     8    21   1
    11     9    10  am
    12    10    11   2
    13    10    12   1
    14    12    13   1
    15    12    17   1
    16    13    14   1
    17    14    15  ar
    18    14    16  ar
    19    17    18  am
    20    18    19   1
    21    18    20   2
    22    21    22  ar
    23    21    23  ar
    24    21    24   1
    25    24    25   1
    26    25    26   1
    27    25    27   1
    28    27    28   2
    29    27    29  am
    30    29    30   1
    31    30    31   1
    32    30    32   1
    33    32    33   2
    34    32    34  am
    35     1    35   1
    36     2    36   1
    37     3    37   1
    38     4    38   1
    39     5    39   1
    40     7    40   1
    41     7    41   1
    42     8    42   1
    43     9    43   1
    44    12    44   1
    45    13    45   1
    46    13    46   1
    47    17    47   1
    48    19    48   1
    49    19    49   1
    50    19    50   1
    51    24    51   1
    52    24    52   1
    53    25    53   1
    54    26    54   1
    55    26    55   1
    56    26    56   1
    57    29    57   1
    58    30    58   1
    59    31    59   1
    60    31    60   1
    61    31    61   1
    62    34    62   1
    63    34    63   1
@<TRIPOS>SUBSTRUCTURE
     1  RX4      1

