@<TRIPOS>MOLECULE
2x97_ligand_066
    63    63
SMALL
GAST_HUCK
****
This file was generated by PARSER (from files_GN.cpp)

@<TRIPOS>ATOM
      1 CAP        27.1311   -3.8834   42.7813 C.ar        1 RX4      -0.0602
      2 CAN        26.1195   -2.9068   42.8059 C.ar        1 RX4      -0.0686
      3 CAM        25.8079   -2.2321   44.0003 C.ar        1 RX4      -0.0687
      4 CAO        26.5145   -2.5328   45.1764 C.ar        1 RX4      -0.0686
      5 CAQ        27.5260   -3.5091   45.1550 C.ar        1 RX4      -0.0602
      6 CBC        27.8439   -4.2021   43.9623 C.ar        1 RX4      -0.0393
      7 CAS        28.9038   -5.2517   43.9474 C.3         1 RX4       0.0205
      8 CBG        30.1809   -4.8675   43.1133 C.3         1 RX4       0.1158
      9 NAW        30.1467   -5.5000   41.8130 N.am        1 RX4      -0.2644
     10 CBB        30.8067   -5.1433   40.7099 C.2         1 RX4       0.2049
     11 OAI        31.5665   -4.1844   40.7398 O.2         1 RX4      -0.3944
     12 CBF        30.6796   -5.9262   39.4752 C.3         1 RX4       0.1421
     13 CAR        31.7643   -7.0409   39.3461 C.3         1 RX4       0.0406
     14 CAZ        31.7160   -8.1298   40.3470 C.2         1 RX4       0.0393
     15 OAK        32.5243   -9.1993   40.1860 O.co2       1 RX4      -0.5688
     16 OAG        30.8831   -8.1165   41.4108 O.co2       1 RX4      -0.5688
     17 NAU        30.6110   -5.1114   38.2841 N.am        1 RX4      -0.2643
     18 CAX        31.5886   -4.4337   37.6890 C.2         1 RX4       0.1752
     19 CAA        31.3032   -3.6959   36.4780 C.3         1 RX4       0.0258
     20 OAE        32.7352   -4.4257   38.1219 O.2         1 RX4      -0.3972
     21 P1         31.6081   -5.1732   43.9529 P.3         1 RX4       0.0153
     22 O4         31.7490   -4.1915   44.9989 O.co2       1 RX4      -0.6174
     23 O3         32.6936   -4.7923   43.0848 O.co2       1 RX4      -0.6174
     24 CAT        31.9866   -6.7101   44.5128 C.3         1 RX4       0.0350
     25 CBD        31.3735   -7.3089   45.8328 C.3         1 RX4       0.0618
     26 CAB        31.2901   -6.2914   47.0084 C.3         1 RX4      -0.0438
     27 CBA        30.1535   -8.0985   45.6247 C.2         1 RX4       0.1825
     28 OAH        29.1205   -7.8131   46.2226 O.2         1 RX4      -0.3966
     29 N          30.2318   -9.1938   44.8747 N.am        1 RX4      -0.2656
     30 CA         29.2706  -10.2163   44.5601 C.3         1 RX4       0.1278
     31 CB         29.9576  -11.5934   44.7744 C.3         1 RX4      -0.0244
     32 C          27.9415  -10.0979   45.1596 C.2         1 RX4       0.1989
     33 O          27.2302   -9.1499   44.8589 O.2         1 RX4      -0.3947
     34 NAD        27.4410  -10.9575   46.0262 N.am        1 RX4      -0.2990
     35 H1         27.3423   -4.3625   41.9015 H           1 RX4       0.0557
     36 H2         25.6080   -2.7024   41.9493 H           1 RX4       0.0599
     37 H3         25.0647   -1.5376   44.0211 H           1 RX4       0.0559
     38 H4         26.2870   -2.0476   46.0491 H           1 RX4       0.0599
     39 H5         28.0302   -3.7067   46.0271 H           1 RX4       0.0557
     40 H6         28.4528   -6.1702   43.5656 H           1 RX4       0.0465
     41 H7         29.1777   -5.4734   44.9880 H           1 RX4       0.0465
     42 H8         30.1534   -3.7801   42.9496 H           1 RX4       0.0788
     43 H9         29.5529   -6.2609   41.7190 H           1 RX4       0.1872
     44 H10        29.7165   -6.4396   39.4983 H           1 RX4       0.0819
     45 H11        32.7621   -6.5930   39.3915 H           1 RX4       0.0478
     46 H12        31.6621   -7.5187   38.3682 H           1 RX4       0.0478
     47 H13        29.7509   -5.0848   37.8359 H           1 RX4       0.1884
     48 H14        32.2000   -3.2142   36.0716 H           1 RX4       0.0467
     49 H15        30.5629   -2.9187   36.6835 H           1 RX4       0.0467
     50 H16        30.9063   -4.3736   35.7176 H           1 RX4       0.0467
     51 H17        33.0705   -6.7099   44.6617 H           1 RX4       0.0493
     52 H18        31.8046   -7.4023   43.6866 H           1 RX4       0.0493
     53 H19        32.1132   -8.0423   46.1857 H           1 RX4       0.0551
     54 H20        31.0492   -6.8090   47.9446 H           1 RX4       0.0257
     55 H21        30.5203   -5.5418   46.8141 H           1 RX4       0.0257
     56 H22        32.2534   -5.7930   47.1424 H           1 RX4       0.0257
     57 H23        31.1060   -9.3615   44.4967 H           1 RX4       0.1883
     58 H24        29.1088  -10.1331   43.4818 H           1 RX4       0.0797
     59 H25        29.3003  -12.4047   44.4523 H           1 RX4       0.0277
     60 H26        30.2087  -11.7356   45.8264 H           1 RX4       0.0277
     61 H27        30.8789  -11.6543   44.1885 H           1 RX4       0.0277
     62 H28        26.5411  -10.8299   46.3789 H           1 RX4       0.1815
     63 H29        27.9655  -11.7215   46.3256 H           1 RX4       0.1815
@<TRIPOS>BOND
     1     1     2  ar
     2     1     6  ar
     3     2     3  ar
     4     3     4  ar
     5     4     5  ar
     6     5     6  ar
     7     6     7   1
     8     7     8   1
     9     8     9   1
    10     8    21   1
    11     9    10  am
    12    10    11   2
    13    10    12   1
    14    12    13   1
    15    12    17   1
    16    13    14   1
    17    14    15  ar
    18    14    16  ar
    19    17    18  am
    20    18    19   1
    21    18    20   2
    22    21    22  ar
    23    21    23  ar
    24    21    24   1
    25    24    25   1
    26    25    26   1
    27    25    27   1
    28    27    28   2
    29    27    29  am
    30    29    30   1
    31    30    31   1
    32    30    32   1
    33    32    33   2
    34    32    34  am
    35     1    35   1
    36     2    36   1
    37     3    37   1
    38     4    38   1
    39     5    39   1
    40     7    40   1
    41     7    41   1
    42     8    42   1
    43     9    43   1
    44    12    44   1
    45    13    45   1
    46    13    46   1
    47    17    47   1
    48    19    48   1
    49    19    49   1
    50    19    50   1
    51    24    51   1
    52    24    52   1
    53    25    53   1
    54    26    54   1
    55    26    55   1
    56    26    56   1
    57    29    57   1
    58    30    58   1
    59    31    59   1
    60    31    60   1
    61    31    61   1
    62    34    62   1
    63    34    63   1
@<TRIPOS>SUBSTRUCTURE
     1  RX4      1

