@<TRIPOS>MOLECULE
2x97_ligand_020
    63    63
SMALL
GAST_HUCK
****
This file was generated by PARSER (from files_GN.cpp)

@<TRIPOS>ATOM
      1 CAP        28.5405   -9.7961   36.6970 C.ar        1 RX4      -0.0602
      2 CAN        29.7140  -10.3655   36.1520 C.ar        1 RX4      -0.0686
      3 CAM        30.6917  -10.9361   37.0009 C.ar        1 RX4      -0.0687
      4 CAO        30.4681  -10.9779   38.3855 C.ar        1 RX4      -0.0686
      5 CAQ        29.2830  -10.4378   38.9275 C.ar        1 RX4      -0.0602
      6 CBC        28.3133   -9.8114   38.0945 C.ar        1 RX4      -0.0393
      7 CAS        27.0754   -9.2167   38.6825 C.3         1 RX4       0.0205
      8 CBG        27.0989   -7.7141   39.1713 C.3         1 RX4       0.1158
      9 NAW        26.2822   -6.8932   38.2960 N.am        1 RX4      -0.2644
     10 CBB        25.4203   -5.9543   38.6708 C.2         1 RX4       0.2049
     11 OAI        25.2020   -5.7305   39.8603 O.2         1 RX4      -0.3944
     12 CBF        24.7647   -5.0869   37.6844 C.3         1 RX4       0.1421
     13 CAR        23.5904   -5.8159   36.9655 C.3         1 RX4       0.0406
     14 CAZ        23.9378   -7.0018   36.1573 C.2         1 RX4       0.0393
     15 OAK        22.9458   -7.7206   35.5918 O.co2       1 RX4      -0.5688
     16 OAG        25.1534   -7.1087   35.5757 O.co2       1 RX4      -0.5688
     17 NAU        25.6820   -4.5262   36.7283 N.am        1 RX4      -0.2643
     18 CAX        26.7895   -3.8459   36.9875 C.2         1 RX4       0.1752
     19 CAA        27.6050   -3.3975   35.8829 C.3         1 RX4       0.0258
     20 OAE        27.1608   -3.6278   38.1365 O.2         1 RX4      -0.3972
     21 P1         28.5891   -6.9551   39.3914 P.3         1 RX4       0.0153
     22 O4         28.3654   -5.5294   39.5124 O.co2       1 RX4      -0.6174
     23 O3         29.3682   -7.1184   38.1854 O.co2       1 RX4      -0.6174
     24 CAT        29.4074   -7.5151   40.7389 C.3         1 RX4       0.0350
     25 CBD        30.8596   -7.0007   41.0370 C.3         1 RX4       0.0618
     26 CAB        31.7282   -6.6419   39.7864 C.3         1 RX4      -0.0438
     27 CBA        30.8734   -5.9277   42.0274 C.2         1 RX4       0.1825
     28 OAH        30.5899   -4.7766   41.6933 O.2         1 RX4      -0.3966
     29 N          31.1471   -6.2247   43.2960 N.am        1 RX4      -0.2656
     30 CA         31.0300   -5.3988   44.4576 C.3         1 RX4       0.1278
     31 CB         32.0348   -5.9338   45.5090 C.3         1 RX4      -0.0244
     32 C          31.2175   -3.9723   44.2140 C.2         1 RX4       0.1989
     33 O          32.2840   -3.5399   43.8123 O.2         1 RX4      -0.3947
     34 NAD        30.2503   -3.1204   44.4505 N.am        1 RX4      -0.2990
     35 H1         27.8490   -9.3732   36.0641 H           1 RX4       0.0557
     36 H2         29.8705  -10.3527   35.1399 H           1 RX4       0.0599
     37 H3         31.5503  -11.3237   36.6040 H           1 RX4       0.0559
     38 H4         31.1555  -11.4223   39.0071 H           1 RX4       0.0599
     39 H5         29.1694  -10.4308   39.9503 H           1 RX4       0.0557
     40 H6         26.7753   -9.8401   39.5371 H           1 RX4       0.0465
     41 H7         26.2759   -9.3512   37.9409 H           1 RX4       0.0465
     42 H8         26.6371   -7.7305   40.1667 H           1 RX4       0.0788
     43 H9         26.4507   -6.9824   37.3380 H           1 RX4       0.1872
     44 H10        24.3128   -4.2363   38.2088 H           1 RX4       0.0819
     45 H11        23.0871   -5.1080   36.3018 H           1 RX4       0.0478
     46 H12        22.8574   -6.1280   37.7187 H           1 RX4       0.0478
     47 H13        25.4528   -4.6403   35.7909 H           1 RX4       0.1884
     48 H14        28.4834   -2.8469   36.2314 H           1 RX4       0.0467
     49 H15        27.0190   -2.7380   35.2381 H           1 RX4       0.0467
     50 H16        27.9425   -4.2586   35.3002 H           1 RX4       0.0467
     51 H17        29.4781   -8.6190   40.6393 H           1 RX4       0.0493
     52 H18        28.7735   -7.3136   41.6226 H           1 RX4       0.0493
     53 H19        31.3768   -7.8647   41.4704 H           1 RX4       0.0551
     54 H20        32.7742   -6.4620   40.0853 H           1 RX4       0.0257
     55 H21        31.3578   -5.7455   39.2841 H           1 RX4       0.0257
     56 H22        31.7217   -7.4822   39.0804 H           1 RX4       0.0257
     57 H23        31.3529   -7.1695   43.4687 H           1 RX4       0.1883
     58 H24        30.0197   -5.5726   44.8484 H           1 RX4       0.0797
     59 H25        31.9631   -5.3500   46.4277 H           1 RX4       0.0277
     60 H26        33.0572   -5.8763   45.1174 H           1 RX4       0.0277
     61 H27        31.8075   -6.9834   45.7402 H           1 RX4       0.0277
     62 H28        30.3883   -2.1758   44.3061 H           1 RX4       0.1815
     63 H29        29.3904   -3.4263   44.7700 H           1 RX4       0.1815
@<TRIPOS>BOND
     1     1     2  ar
     2     1     6  ar
     3     2     3  ar
     4     3     4  ar
     5     4     5  ar
     6     5     6  ar
     7     6     7   1
     8     7     8   1
     9     8     9   1
    10     8    21   1
    11     9    10  am
    12    10    11   2
    13    10    12   1
    14    12    13   1
    15    12    17   1
    16    13    14   1
    17    14    15  ar
    18    14    16  ar
    19    17    18  am
    20    18    19   1
    21    18    20   2
    22    21    22  ar
    23    21    23  ar
    24    21    24   1
    25    24    25   1
    26    25    26   1
    27    25    27   1
    28    27    28   2
    29    27    29  am
    30    29    30   1
    31    30    31   1
    32    30    32   1
    33    32    33   2
    34    32    34  am
    35     1    35   1
    36     2    36   1
    37     3    37   1
    38     4    38   1
    39     5    39   1
    40     7    40   1
    41     7    41   1
    42     8    42   1
    43     9    43   1
    44    12    44   1
    45    13    45   1
    46    13    46   1
    47    17    47   1
    48    19    48   1
    49    19    49   1
    50    19    50   1
    51    24    51   1
    52    24    52   1
    53    25    53   1
    54    26    54   1
    55    26    55   1
    56    26    56   1
    57    29    57   1
    58    30    58   1
    59    31    59   1
    60    31    60   1
    61    31    61   1
    62    34    62   1
    63    34    63   1
@<TRIPOS>SUBSTRUCTURE
     1  RX4      1

