@<TRIPOS>MOLECULE
2x97_ligand_065
    63    63
SMALL
GAST_HUCK
****
This file was generated by PARSER (from files_GN.cpp)

@<TRIPOS>ATOM
      1 CAP        26.3644   -7.0465   37.5419 C.ar        1 RX4      -0.0602
      2 CAN        26.2669   -6.3676   36.3124 C.ar        1 RX4      -0.0686
      3 CAM        26.4477   -4.9756   36.2530 C.ar        1 RX4      -0.0687
      4 CAO        26.7145   -4.2566   37.4342 C.ar        1 RX4      -0.0686
      5 CAQ        26.7917   -4.9310   38.6681 C.ar        1 RX4      -0.0602
      6 CBC        26.6460   -6.3403   38.7391 C.ar        1 RX4      -0.0393
      7 CAS        26.8061   -7.0557   40.0383 C.3         1 RX4       0.0205
      8 CBG        28.1470   -6.7413   40.7877 C.3         1 RX4       0.1158
      9 NAW        29.3125   -6.6850   39.9462 N.am        1 RX4      -0.2644
     10 CBB        29.7668   -7.5899   39.0793 C.2         1 RX4       0.2049
     11 OAI        29.1318   -8.6150   38.8585 O.2         1 RX4      -0.3944
     12 CBF        31.0758   -7.4164   38.4540 C.3         1 RX4       0.1421
     13 CAR        32.2543   -7.2787   39.4644 C.3         1 RX4       0.0406
     14 CAZ        32.2691   -8.3810   40.4542 C.2         1 RX4       0.0393
     15 OAK        32.7074   -9.6281   40.1224 O.co2       1 RX4      -0.5688
     16 OAG        31.8837   -8.1683   41.7438 O.co2       1 RX4      -0.5688
     17 NAU        30.9966   -6.3892   37.4496 N.am        1 RX4      -0.2643
     18 CAX        30.8286   -5.0773   37.5952 C.2         1 RX4       0.1752
     19 CAA        30.5850   -4.2716   36.4221 C.3         1 RX4       0.0258
     20 OAE        30.8505   -4.5225   38.6900 O.2         1 RX4      -0.3972
     21 P1         28.4936   -7.6888   42.1246 P.3         1 RX4       0.0153
     22 O4         29.6606   -7.1322   42.7679 O.co2       1 RX4      -0.6174
     23 O3         28.9102   -9.0089   41.7094 O.co2       1 RX4      -0.6174
     24 CAT        27.3247   -7.9133   43.2942 C.3         1 RX4       0.0350
     25 CBD        26.5218   -6.6754   43.8066 C.3         1 RX4       0.0618
     26 CAB        25.4716   -7.1363   44.8512 C.3         1 RX4      -0.0438
     27 CBA        27.2939   -5.5657   44.3594 C.2         1 RX4       0.1825
     28 OAH        28.3887   -5.7563   44.8774 O.2         1 RX4      -0.3966
     29 N          26.7339   -4.3676   44.3890 N.am        1 RX4      -0.2656
     30 CA         27.2823   -3.1428   44.8868 C.3         1 RX4       0.1278
     31 CB         28.3316   -2.5613   43.8983 C.3         1 RX4      -0.0244
     32 C          26.1838   -2.2136   45.1099 C.2         1 RX4       0.1989
     33 O          25.9348   -1.7945   46.2323 O.2         1 RX4      -0.3947
     34 NAD        25.3584   -1.8676   44.1449 N.am        1 RX4      -0.2990
     35 H1         26.2352   -8.0587   37.5570 H           1 RX4       0.0557
     36 H2         26.0628   -6.8898   35.4557 H           1 RX4       0.0599
     37 H3         26.3969   -4.4838   35.3656 H           1 RX4       0.0559
     38 H4         26.8429   -3.2478   37.3969 H           1 RX4       0.0599
     39 H5         26.9742   -4.3821   39.5108 H           1 RX4       0.0557
     40 H6         26.7224   -8.1365   39.8891 H           1 RX4       0.0465
     41 H7         25.9618   -6.7663   40.6681 H           1 RX4       0.0465
     42 H8         28.0399   -5.7343   41.1947 H           1 RX4       0.0788
     43 H9         29.8659   -5.8949   40.0696 H           1 RX4       0.1872
     44 H10        31.2870   -8.3259   37.8817 H           1 RX4       0.0819
     45 H11        32.1857   -6.3240   40.0147 H           1 RX4       0.0478
     46 H12        33.2087   -7.2777   38.9226 H           1 RX4       0.0478
     47 H13        31.0073   -6.7055   36.5350 H           1 RX4       0.1884
     48 H14        30.4740   -3.2087   36.6728 H           1 RX4       0.0467
     49 H15        29.6671   -4.6006   35.9257 H           1 RX4       0.0467
     50 H16        31.4179   -4.3662   35.7220 H           1 RX4       0.0467
     51 H17        27.8074   -8.4037   44.1460 H           1 RX4       0.0493
     52 H18        26.6169   -8.6270   42.8728 H           1 RX4       0.0493
     53 H19        25.9556   -6.2908   42.9542 H           1 RX4       0.0551
     54 H20        24.7962   -6.3168   45.1068 H           1 RX4       0.0257
     55 H21        25.9664   -7.4933   45.7580 H           1 RX4       0.0257
     56 H22        24.8615   -7.9495   44.4568 H           1 RX4       0.0257
     57 H23        25.8221   -4.3182   44.0442 H           1 RX4       0.1883
     58 H24        27.7858   -3.3379   45.8424 H           1 RX4       0.0797
     59 H25        28.7207   -1.6127   44.2661 H           1 RX4       0.0277
     60 H26        27.8824   -2.4001   42.9164 H           1 RX4       0.0277
     61 H27        29.1706   -3.2538   43.7834 H           1 RX4       0.0277
     62 H28        24.5597   -1.3629   44.3527 H           1 RX4       0.1815
     63 H29        25.4856   -2.2133   43.2454 H           1 RX4       0.1815
@<TRIPOS>BOND
     1     1     2  ar
     2     1     6  ar
     3     2     3  ar
     4     3     4  ar
     5     4     5  ar
     6     5     6  ar
     7     6     7   1
     8     7     8   1
     9     8     9   1
    10     8    21   1
    11     9    10  am
    12    10    11   2
    13    10    12   1
    14    12    13   1
    15    12    17   1
    16    13    14   1
    17    14    15  ar
    18    14    16  ar
    19    17    18  am
    20    18    19   1
    21    18    20   2
    22    21    22  ar
    23    21    23  ar
    24    21    24   1
    25    24    25   1
    26    25    26   1
    27    25    27   1
    28    27    28   2
    29    27    29  am
    30    29    30   1
    31    30    31   1
    32    30    32   1
    33    32    33   2
    34    32    34  am
    35     1    35   1
    36     2    36   1
    37     3    37   1
    38     4    38   1
    39     5    39   1
    40     7    40   1
    41     7    41   1
    42     8    42   1
    43     9    43   1
    44    12    44   1
    45    13    45   1
    46    13    46   1
    47    17    47   1
    48    19    48   1
    49    19    49   1
    50    19    50   1
    51    24    51   1
    52    24    52   1
    53    25    53   1
    54    26    54   1
    55    26    55   1
    56    26    56   1
    57    29    57   1
    58    30    58   1
    59    31    59   1
    60    31    60   1
    61    31    61   1
    62    34    62   1
    63    34    63   1
@<TRIPOS>SUBSTRUCTURE
     1  RX4      1

