@<TRIPOS>MOLECULE
2x97_ligand_037
    63    63
SMALL
GAST_HUCK
****
This file was generated by PARSER (from files_GN.cpp)

@<TRIPOS>ATOM
      1 CAP        30.3360  -10.3929   38.9811 C.ar        1 RX4      -0.0602
      2 CAN        30.3322  -11.3611   37.9561 C.ar        1 RX4      -0.0686
      3 CAM        30.9739  -11.0960   36.7381 C.ar        1 RX4      -0.0687
      4 CAO        31.6012   -9.8558   36.5367 C.ar        1 RX4      -0.0686
      5 CAQ        31.5946   -8.8878   37.5566 C.ar        1 RX4      -0.0602
      6 CBC        30.9915   -9.1428   38.8078 C.ar        1 RX4      -0.0393
      7 CAS        31.0339   -8.1295   39.9136 C.3         1 RX4       0.0205
      8 CBG        29.6385   -7.7315   40.4991 C.3         1 RX4       0.1158
      9 NAW        28.6187   -7.6867   39.4894 N.am        1 RX4      -0.2644
     10 CBB        28.4111   -6.7698   38.5510 C.2         1 RX4       0.2049
     11 OAI        29.1193   -5.7627   38.4958 O.2         1 RX4      -0.3944
     12 CBF        27.3558   -6.9474   37.5575 C.3         1 RX4       0.1421
     13 CAR        25.9158   -7.1408   38.1280 C.3         1 RX4       0.0406
     14 CAZ        25.2932   -5.9480   38.7413 C.2         1 RX4       0.0393
     15 OAK        25.8985   -4.7434   38.7887 O.co2       1 RX4      -0.5688
     16 OAG        24.0494   -6.0684   39.2574 O.co2       1 RX4      -0.5688
     17 NAU        27.7136   -7.9747   36.6158 N.am        1 RX4      -0.2643
     18 CAX        27.7337   -9.2926   36.7642 C.2         1 RX4       0.1752
     19 CAA        28.0977  -10.1267   35.6416 C.3         1 RX4       0.0258
     20 OAE        27.3932   -9.8236   37.8164 O.2         1 RX4      -0.3972
     21 P1         29.6420   -6.3641   41.4767 P.3         1 RX4       0.0153
     22 O4         30.1100   -5.2255   40.7266 O.co2       1 RX4      -0.6174
     23 O3         30.6254   -6.5365   42.5188 O.co2       1 RX4      -0.6174
     24 CAT        28.1505   -6.0727   42.1875 C.3         1 RX4       0.0350
     25 CBD        27.5521   -4.6230   42.0502 C.3         1 RX4       0.0618
     26 CAB        26.0004   -4.6999   42.1375 C.3         1 RX4      -0.0438
     27 CBA        28.0459   -3.6316   43.0161 C.2         1 RX4       0.1825
     28 OAH        28.8921   -3.9432   43.8441 O.2         1 RX4      -0.3966
     29 N          27.5068   -2.4122   43.0228 N.am        1 RX4      -0.2656
     30 CA         27.6386   -1.4168   44.0527 C.3         1 RX4       0.1278
     31 CB         27.8195   -0.0151   43.4226 C.3         1 RX4      -0.0244
     32 C          26.4584   -1.4957   44.9008 C.2         1 RX4       0.1989
     33 O          26.5277   -2.0083   46.0109 O.2         1 RX4      -0.3947
     34 NAD        25.2728   -1.1185   44.4740 N.am        1 RX4      -0.2990
     35 H1         29.8528  -10.6043   39.8504 H           1 RX4       0.0557
     36 H2         29.8651  -12.2584   38.1071 H           1 RX4       0.0599
     37 H3         30.9877  -11.8035   36.0031 H           1 RX4       0.0559
     38 H4         32.0686   -9.6600   35.6478 H           1 RX4       0.0599
     39 H5         32.0597   -7.9884   37.3867 H           1 RX4       0.0557
     40 H6         31.5533   -7.2268   39.5676 H           1 RX4       0.0465
     41 H7         31.6537   -8.5474   40.7118 H           1 RX4       0.0465
     42 H8         29.3508   -8.5476   41.1686 H           1 RX4       0.0788
     43 H9         28.0272   -8.4515   39.4773 H           1 RX4       0.1872
     44 H10        27.3082   -6.0400   36.9433 H           1 RX4       0.0819
     45 H11        25.9102   -7.9376   38.8744 H           1 RX4       0.0478
     46 H12        25.2604   -7.4526   37.3110 H           1 RX4       0.0478
     47 H13        27.9605   -7.6521   35.7353 H           1 RX4       0.1884
     48 H14        27.9698  -11.1856   35.8715 H           1 RX4       0.0467
     49 H15        29.1410   -9.9563   35.3806 H           1 RX4       0.0467
     50 H16        27.4787   -9.8841   34.7734 H           1 RX4       0.0467
     51 H17        28.2053   -6.3353   43.2476 H           1 RX4       0.0493
     52 H18        27.4454   -6.7796   41.7417 H           1 RX4       0.0493
     53 H19        27.7918   -4.2488   41.0473 H           1 RX4       0.0551
     54 H20        25.5416   -3.7220   41.9583 H           1 RX4       0.0257
     55 H21        25.6886   -5.0572   43.1236 H           1 RX4       0.0257
     56 H22        25.6110   -5.3830   41.3799 H           1 RX4       0.0257
     57 H23        26.8359   -2.2258   42.3441 H           1 RX4       0.1883
     58 H24        28.5393   -1.6074   44.6463 H           1 RX4       0.0797
     59 H25        27.8886    0.7417   44.2074 H           1 RX4       0.0277
     60 H26        26.9819    0.2346   42.7677 H           1 RX4       0.0277
     61 H27        28.7401    0.0164   42.8355 H           1 RX4       0.0277
     62 H28        24.4770   -1.2796   45.0035 H           1 RX4       0.1815
     63 H29        25.1846   -0.7240   43.5936 H           1 RX4       0.1815
@<TRIPOS>BOND
     1     1     2  ar
     2     1     6  ar
     3     2     3  ar
     4     3     4  ar
     5     4     5  ar
     6     5     6  ar
     7     6     7   1
     8     7     8   1
     9     8     9   1
    10     8    21   1
    11     9    10  am
    12    10    11   2
    13    10    12   1
    14    12    13   1
    15    12    17   1
    16    13    14   1
    17    14    15  ar
    18    14    16  ar
    19    17    18  am
    20    18    19   1
    21    18    20   2
    22    21    22  ar
    23    21    23  ar
    24    21    24   1
    25    24    25   1
    26    25    26   1
    27    25    27   1
    28    27    28   2
    29    27    29  am
    30    29    30   1
    31    30    31   1
    32    30    32   1
    33    32    33   2
    34    32    34  am
    35     1    35   1
    36     2    36   1
    37     3    37   1
    38     4    38   1
    39     5    39   1
    40     7    40   1
    41     7    41   1
    42     8    42   1
    43     9    43   1
    44    12    44   1
    45    13    45   1
    46    13    46   1
    47    17    47   1
    48    19    48   1
    49    19    49   1
    50    19    50   1
    51    24    51   1
    52    24    52   1
    53    25    53   1
    54    26    54   1
    55    26    55   1
    56    26    56   1
    57    29    57   1
    58    30    58   1
    59    31    59   1
    60    31    60   1
    61    31    61   1
    62    34    62   1
    63    34    63   1
@<TRIPOS>SUBSTRUCTURE
     1  RX4      1

