@<TRIPOS>MOLECULE
2x97_ligand_004
    63    63
SMALL
GAST_HUCK
****
This file was generated by PARSER (from files_GN.cpp)

@<TRIPOS>ATOM
      1 CAP        28.9907  -10.5045   38.7493 C.ar        1 RX4      -0.0602
      2 CAN        29.5923  -10.8421   37.5222 C.ar        1 RX4      -0.0686
      3 CAM        29.0459  -10.3678   36.3189 C.ar        1 RX4      -0.0687
      4 CAO        27.8861   -9.5719   36.3421 C.ar        1 RX4      -0.0686
      5 CAQ        27.2916   -9.2262   37.5689 C.ar        1 RX4      -0.0602
      6 CBC        27.8422   -9.6779   38.7912 C.ar        1 RX4      -0.0393
      7 CAS        27.2886   -9.2218   40.0993 C.3         1 RX4       0.0205
      8 CBG        28.1552   -8.1497   40.8626 C.3         1 RX4       0.1158
      9 NAW        29.1597   -7.4962   40.0731 N.am        1 RX4      -0.2644
     10 CBB        30.3965   -7.8738   39.7508 C.2         1 RX4       0.2049
     11 OAI        30.8853   -8.9139   40.1841 O.2         1 RX4      -0.3944
     12 CBF        31.2394   -6.9744   38.9693 C.3         1 RX4       0.1421
     13 CAR        31.8884   -5.7937   39.7854 C.3         1 RX4       0.0406
     14 CAZ        31.2313   -5.3116   41.0278 C.2         1 RX4       0.0393
     15 OAK        31.9652   -4.9423   42.1035 O.co2       1 RX4      -0.5688
     16 OAG        29.8961   -5.1387   41.1147 O.co2       1 RX4      -0.5688
     17 NAU        30.6121   -6.6011   37.7216 N.am        1 RX4      -0.2643
     18 CAX        29.7706   -5.6059   37.4764 C.2         1 RX4       0.1752
     19 CAA        29.2711   -5.4414   36.1310 C.3         1 RX4       0.0258
     20 OAE        29.4134   -4.8162   38.3358 O.2         1 RX4      -0.3972
     21 P1         28.6696   -8.5874   42.4001 P.3         1 RX4       0.0153
     22 O4         29.9318   -7.9676   42.7387 O.co2       1 RX4      -0.6174
     23 O3         28.9821   -9.9983   42.3962 O.co2       1 RX4      -0.6174
     24 CAT        27.6093   -8.3454   43.6729 C.3         1 RX4       0.0350
     25 CBD        26.7427   -7.0327   43.7134 C.3         1 RX4       0.0618
     26 CAB        25.7001   -7.1622   44.8539 C.3         1 RX4      -0.0438
     27 CBA        27.4570   -5.7547   43.8416 C.2         1 RX4       0.1825
     28 OAH        28.6803   -5.7130   43.8800 O.2         1 RX4      -0.3966
     29 N          26.7540   -4.6312   43.9922 N.am        1 RX4      -0.2656
     30 CA         27.2521   -3.2885   44.1159 C.3         1 RX4       0.1278
     31 CB         26.8120   -2.4942   42.8618 C.3         1 RX4      -0.0244
     32 C          26.7544   -2.6858   45.3495 C.2         1 RX4       0.1989
     33 O          27.5187   -2.3772   46.2501 O.2         1 RX4      -0.3947
     34 NAD        25.4799   -2.4330   45.5409 N.am        1 RX4      -0.2990
     35 H1         29.4084  -10.8505   39.6166 H           1 RX4       0.0557
     36 H2         30.4348  -11.4229   37.5109 H           1 RX4       0.0599
     37 H3         29.4900  -10.5999   35.4267 H           1 RX4       0.0559
     38 H4         27.4776   -9.2434   35.4679 H           1 RX4       0.0599
     39 H5         26.4578   -8.6329   37.5618 H           1 RX4       0.0557
     40 H6         27.0994  -10.1074   40.7105 H           1 RX4       0.0465
     41 H7         26.2956   -8.7939   39.9279 H           1 RX4       0.0465
     42 H8         27.4769   -7.3216   41.0514 H           1 RX4       0.0788
     43 H9         28.8935   -6.6343   39.7238 H           1 RX4       0.1872
     44 H10        32.0814   -7.5856   38.6194 H           1 RX4       0.0819
     45 H11        31.9996   -4.9322   39.1217 H           1 RX4       0.0478
     46 H12        32.9016   -6.1024   40.0616 H           1 RX4       0.0478
     47 H13        30.8450   -7.1463   36.9509 H           1 RX4       0.1884
     48 H14        28.6367   -4.5554   36.0404 H           1 RX4       0.0467
     49 H15        28.6810   -6.3161   35.8520 H           1 RX4       0.0467
     50 H16        30.1060   -5.3369   35.4340 H           1 RX4       0.0467
     51 H17        28.1855   -8.4148   44.6053 H           1 RX4       0.0493
     52 H18        26.9230   -9.2015   43.6590 H           1 RX4       0.0493
     53 H19        26.1798   -6.9939   42.7750 H           1 RX4       0.0551
     54 H20        24.9794   -6.3463   44.8094 H           1 RX4       0.0257
     55 H21        26.2080   -7.1422   45.8171 H           1 RX4       0.0257
     56 H22        25.1441   -8.0925   44.7708 H           1 RX4       0.0257
     57 H23        25.7855   -4.7241   44.0197 H           1 RX4       0.1883
     58 H24        28.3467   -3.2713   44.1313 H           1 RX4       0.0797
     59 H25        27.1703   -1.4624   42.9154 H           1 RX4       0.0277
     60 H26        25.7228   -2.4924   42.7744 H           1 RX4       0.0277
     61 H27        27.2257   -2.9594   41.9642 H           1 RX4       0.0277
     62 H28        25.1712   -1.9892   46.3505 H           1 RX4       0.1815
     63 H29        24.8422   -2.6483   44.8478 H           1 RX4       0.1815
@<TRIPOS>BOND
     1     1     2  ar
     2     1     6  ar
     3     2     3  ar
     4     3     4  ar
     5     4     5  ar
     6     5     6  ar
     7     6     7   1
     8     7     8   1
     9     8     9   1
    10     8    21   1
    11     9    10  am
    12    10    11   2
    13    10    12   1
    14    12    13   1
    15    12    17   1
    16    13    14   1
    17    14    15  ar
    18    14    16  ar
    19    17    18  am
    20    18    19   1
    21    18    20   2
    22    21    22  ar
    23    21    23  ar
    24    21    24   1
    25    24    25   1
    26    25    26   1
    27    25    27   1
    28    27    28   2
    29    27    29  am
    30    29    30   1
    31    30    31   1
    32    30    32   1
    33    32    33   2
    34    32    34  am
    35     1    35   1
    36     2    36   1
    37     3    37   1
    38     4    38   1
    39     5    39   1
    40     7    40   1
    41     7    41   1
    42     8    42   1
    43     9    43   1
    44    12    44   1
    45    13    45   1
    46    13    46   1
    47    17    47   1
    48    19    48   1
    49    19    49   1
    50    19    50   1
    51    24    51   1
    52    24    52   1
    53    25    53   1
    54    26    54   1
    55    26    55   1
    56    26    56   1
    57    29    57   1
    58    30    58   1
    59    31    59   1
    60    31    60   1
    61    31    61   1
    62    34    62   1
    63    34    63   1
@<TRIPOS>SUBSTRUCTURE
     1  RX4      1

