@<TRIPOS>MOLECULE
2x97_ligand_053
    63    63
SMALL
GAST_HUCK
****
This file was generated by PARSER (from files_GN.cpp)

@<TRIPOS>ATOM
      1 CAP        30.9337   -7.6004   42.6443 C.ar        1 RX4      -0.0602
      2 CAN        30.9826   -6.9860   43.9142 C.ar        1 RX4      -0.0686
      3 CAM        31.1680   -5.5972   44.0196 C.ar        1 RX4      -0.0687
      4 CAO        31.2813   -4.8116   42.8545 C.ar        1 RX4      -0.0686
      5 CAQ        31.2393   -5.4270   41.5843 C.ar        1 RX4      -0.0602
      6 CBC        31.0584   -6.8232   41.4592 C.ar        1 RX4      -0.0393
      7 CAS        31.0396   -7.4886   40.1290 C.3         1 RX4       0.0205
      8 CBG        29.6002   -7.8717   39.6496 C.3         1 RX4       0.1158
      9 NAW        29.6777   -8.9753   38.7146 N.am        1 RX4      -0.2644
     10 CBB        29.8046  -10.2629   39.0363 C.2         1 RX4       0.2049
     11 OAI        29.9158  -10.5963   40.2111 O.2         1 RX4      -0.3944
     12 CBF        29.7356  -11.2920   37.9940 C.3         1 RX4       0.1421
     13 CAR        28.4043  -11.1675   37.1806 C.3         1 RX4       0.0406
     14 CAZ        28.1312  -12.2618   36.2352 C.2         1 RX4       0.0393
     15 OAK        29.0738  -13.1324   35.8200 O.co2       1 RX4      -0.5688
     16 OAG        26.8629  -12.4232   35.7817 O.co2       1 RX4      -0.5688
     17 NAU        29.8175  -12.6370   38.5192 N.am        1 RX4      -0.2643
     18 CAX        30.9229  -13.2844   38.8583 C.2         1 RX4       0.1752
     19 CAA        30.8033  -14.6220   39.3852 C.3         1 RX4       0.0258
     20 OAE        32.0284  -12.7638   38.7319 O.2         1 RX4      -0.3972
     21 P1         28.7473   -6.6007   38.9492 P.3         1 RX4       0.0153
     22 O4         29.4958   -6.0547   37.8446 O.co2       1 RX4      -0.6174
     23 O3         28.5895   -5.5450   39.9146 O.co2       1 RX4      -0.6174
     24 CAT        27.2437   -7.0791   38.3985 C.3         1 RX4       0.0350
     25 CBD        26.2551   -6.0316   37.7353 C.3         1 RX4       0.0618
     26 CAB        25.2019   -5.4759   38.7611 C.3         1 RX4      -0.0438
     27 CBA        26.8638   -4.9648   36.9494 C.2         1 RX4       0.1825
     28 OAH        26.7496   -3.7978   37.3338 O.2         1 RX4      -0.3966
     29 N          27.5784   -5.2643   35.8629 N.am        1 RX4      -0.2656
     30 CA         28.3197   -4.3707   35.0202 C.3         1 RX4       0.1278
     31 CB         27.7236   -2.9374   34.9078 C.3         1 RX4      -0.0244
     32 C          29.7473   -4.3758   35.3450 C.2         1 RX4       0.1989
     33 O          30.5131   -5.1040   34.7271 O.2         1 RX4      -0.3947
     34 NAD        30.2771   -3.7125   36.3442 N.am        1 RX4      -0.2990
     35 H1         30.8036   -8.6109   42.5934 H           1 RX4       0.0557
     36 H2         30.9024   -7.5565   44.7623 H           1 RX4       0.0599
     37 H3         31.2010   -5.1476   44.9378 H           1 RX4       0.0559
     38 H4         31.4151   -3.8027   42.9271 H           1 RX4       0.0599
     39 H5         31.3286   -4.8429   40.7489 H           1 RX4       0.0557
     40 H6         31.6651   -8.3906   40.2122 H           1 RX4       0.0465
     41 H7         31.5289   -6.8572   39.3712 H           1 RX4       0.0465
     42 H8         28.9970   -8.2046   40.5110 H           1 RX4       0.0788
     43 H9         29.5846   -8.7764   37.7706 H           1 RX4       0.1872
     44 H10        30.5670  -11.1294   37.2985 H           1 RX4       0.0819
     45 H11        28.4107  -10.2418   36.5949 H           1 RX4       0.0478
     46 H12        27.5656  -11.1082   37.8835 H           1 RX4       0.0478
     47 H13        28.9763  -13.1111   38.6377 H           1 RX4       0.1884
     48 H14        31.7736  -15.0190   39.6918 H           1 RX4       0.0467
     49 H15        30.3853  -15.2773   38.6209 H           1 RX4       0.0467
     50 H16        30.1424  -14.6346   40.2543 H           1 RX4       0.0467
     51 H17        26.7365   -7.5668   39.2588 H           1 RX4       0.0493
     52 H18        27.4183   -7.8801   37.6524 H           1 RX4       0.0493
     53 H19        25.6301   -6.6241   37.0378 H           1 RX4       0.0551
     54 H20        24.5010   -4.7995   38.2634 H           1 RX4       0.0257
     55 H21        25.6898   -4.9308   39.5747 H           1 RX4       0.0257
     56 H22        24.6277   -6.2935   39.1985 H           1 RX4       0.0257
     57 H23        27.6458   -6.2105   35.6359 H           1 RX4       0.1883
     58 H24        28.2269   -4.7925   34.0128 H           1 RX4       0.0797
     59 H25        28.2262   -2.3792   34.1162 H           1 RX4       0.0277
     60 H26        27.8402   -2.3940   35.8517 H           1 RX4       0.0277
     61 H27        26.6533   -3.0006   34.6705 H           1 RX4       0.0277
     62 H28        31.2263   -3.7832   36.5255 H           1 RX4       0.1815
     63 H29        29.7450   -3.1710   36.9387 H           1 RX4       0.1815
@<TRIPOS>BOND
     1     1     2  ar
     2     1     6  ar
     3     2     3  ar
     4     3     4  ar
     5     4     5  ar
     6     5     6  ar
     7     6     7   1
     8     7     8   1
     9     8     9   1
    10     8    21   1
    11     9    10  am
    12    10    11   2
    13    10    12   1
    14    12    13   1
    15    12    17   1
    16    13    14   1
    17    14    15  ar
    18    14    16  ar
    19    17    18  am
    20    18    19   1
    21    18    20   2
    22    21    22  ar
    23    21    23  ar
    24    21    24   1
    25    24    25   1
    26    25    26   1
    27    25    27   1
    28    27    28   2
    29    27    29  am
    30    29    30   1
    31    30    31   1
    32    30    32   1
    33    32    33   2
    34    32    34  am
    35     1    35   1
    36     2    36   1
    37     3    37   1
    38     4    38   1
    39     5    39   1
    40     7    40   1
    41     7    41   1
    42     8    42   1
    43     9    43   1
    44    12    44   1
    45    13    45   1
    46    13    46   1
    47    17    47   1
    48    19    48   1
    49    19    49   1
    50    19    50   1
    51    24    51   1
    52    24    52   1
    53    25    53   1
    54    26    54   1
    55    26    55   1
    56    26    56   1
    57    29    57   1
    58    30    58   1
    59    31    59   1
    60    31    60   1
    61    31    61   1
    62    34    62   1
    63    34    63   1
@<TRIPOS>SUBSTRUCTURE
     1  RX4      1

