@<TRIPOS>MOLECULE
2x97_ligand_064
    63    63
SMALL
GAST_HUCK
****
This file was generated by PARSER (from files_GN.cpp)

@<TRIPOS>ATOM
      1 CAP        25.6914   -7.0680   37.3535 C.ar        1 RX4      -0.0602
      2 CAN        24.7710   -6.6001   36.3962 C.ar        1 RX4      -0.0686
      3 CAM        23.8867   -5.5536   36.7183 C.ar        1 RX4      -0.0687
      4 CAO        23.9137   -4.9874   38.0021 C.ar        1 RX4      -0.0686
      5 CAQ        24.8318   -5.4577   38.9575 C.ar        1 RX4      -0.0602
      6 CBC        25.7317   -6.5034   38.6465 C.ar        1 RX4      -0.0393
      7 CAS        26.6123   -7.0536   39.7112 C.3         1 RX4       0.0205
      8 CBG        27.7111   -6.0602   40.2275 C.3         1 RX4       0.1158
      9 NAW        28.7612   -5.6481   39.3240 N.am        1 RX4      -0.2644
     10 CBB        29.3719   -6.2768   38.3330 C.2         1 RX4       0.2049
     11 OAI        28.9839   -7.3775   37.9407 O.2         1 RX4      -0.3944
     12 CBF        30.5647   -5.6935   37.7158 C.3         1 RX4       0.1421
     13 CAR        31.7303   -5.4636   38.7278 C.3         1 RX4       0.0406
     14 CAZ        32.1268   -6.6757   39.4657 C.2         1 RX4       0.0393
     15 OAK        32.6395   -7.7537   38.8293 O.co2       1 RX4      -0.5688
     16 OAG        31.9692   -6.7383   40.8064 O.co2       1 RX4      -0.5688
     17 NAU        30.2335   -4.4236   37.1291 N.am        1 RX4      -0.2643
     18 CAX        30.2614   -4.0939   35.8471 C.2         1 RX4       0.1752
     19 CAA        29.9398   -2.7312   35.4851 C.3         1 RX4       0.0258
     20 OAE        30.5445   -4.9017   34.9703 O.2         1 RX4      -0.3972
     21 P1         28.3817   -6.5436   41.6971 P.3         1 RX4       0.0153
     22 O4         27.5035   -6.1341   42.7702 O.co2       1 RX4      -0.6174
     23 O3         29.5405   -5.7285   41.9745 O.co2       1 RX4      -0.6174
     24 CAT        28.7999   -8.1623   41.8478 C.3         1 RX4       0.0350
     25 CBD        27.8965   -9.0501   42.7937 C.3         1 RX4       0.0618
     26 CAB        27.4397  -10.3501   42.0614 C.3         1 RX4      -0.0438
     27 CBA        28.5307   -9.2638   44.0966 C.2         1 RX4       0.1825
     28 OAH        28.8660   -8.2676   44.7344 O.2         1 RX4      -0.3966
     29 N          28.7315  -10.4750   44.6023 N.am        1 RX4      -0.2656
     30 CA         29.3759  -10.8704   45.8233 C.3         1 RX4       0.1278
     31 CB         30.8907  -10.5422   45.8065 C.3         1 RX4      -0.0244
     32 C          28.7106  -10.4135   47.0376 C.2         1 RX4       0.1989
     33 O          28.1331  -11.2158   47.7647 O.2         1 RX4      -0.3947
     34 NAD        28.7801   -9.1749   47.4695 N.am        1 RX4      -0.2990
     35 H1         26.3188   -7.8329   37.0988 H           1 RX4       0.0557
     36 H2         24.7423   -7.0199   35.4643 H           1 RX4       0.0599
     37 H3         23.2207   -5.2108   36.0191 H           1 RX4       0.0559
     38 H4         23.2568   -4.2392   38.2446 H           1 RX4       0.0599
     39 H5         24.8232   -5.0501   39.8960 H           1 RX4       0.0557
     40 H6         27.0654   -7.9905   39.3876 H           1 RX4       0.0465
     41 H7         25.9547   -7.3121   40.5427 H           1 RX4       0.0465
     42 H8         27.1930   -5.1220   40.4471 H           1 RX4       0.0788
     43 H9         29.1738   -4.8007   39.5683 H           1 RX4       0.1872
     44 H10        30.9459   -6.3765   36.9501 H           1 RX4       0.0819
     45 H11        31.4492   -4.6915   39.4459 H           1 RX4       0.0478
     46 H12        32.6062   -5.0954   38.1901 H           1 RX4       0.0478
     47 H13        29.9783   -3.7131   37.7355 H           1 RX4       0.1884
     48 H14        29.9185   -2.5981   34.3998 H           1 RX4       0.0467
     49 H15        30.6885   -2.0517   35.9017 H           1 RX4       0.0467
     50 H16        28.9587   -2.4598   35.8852 H           1 RX4       0.0467
     51 H17        29.8363   -8.2033   42.1901 H           1 RX4       0.0493
     52 H18        28.8280   -8.5816   40.8424 H           1 RX4       0.0493
     53 H19        26.9579   -8.5395   43.0225 H           1 RX4       0.0551
     54 H20        26.7879  -10.9484   42.7020 H           1 RX4       0.0257
     55 H21        28.2968  -10.9583   41.7743 H           1 RX4       0.0257
     56 H22        26.8810  -10.0953   41.1594 H           1 RX4       0.0257
     57 H23        28.4192  -11.2152   44.0577 H           1 RX4       0.1883
     58 H24        29.3178  -11.9630   45.8086 H           1 RX4       0.0797
     59 H25        31.3720  -10.9768   46.6843 H           1 RX4       0.0277
     60 H26        31.0681   -9.4658   45.8069 H           1 RX4       0.0277
     61 H27        31.3510  -10.9698   44.9135 H           1 RX4       0.0277
     62 H28        28.4047   -8.9455   48.3323 H           1 RX4       0.1815
     63 H29        29.2762   -8.5059   46.9684 H           1 RX4       0.1815
@<TRIPOS>BOND
     1     1     2  ar
     2     1     6  ar
     3     2     3  ar
     4     3     4  ar
     5     4     5  ar
     6     5     6  ar
     7     6     7   1
     8     7     8   1
     9     8     9   1
    10     8    21   1
    11     9    10  am
    12    10    11   2
    13    10    12   1
    14    12    13   1
    15    12    17   1
    16    13    14   1
    17    14    15  ar
    18    14    16  ar
    19    17    18  am
    20    18    19   1
    21    18    20   2
    22    21    22  ar
    23    21    23  ar
    24    21    24   1
    25    24    25   1
    26    25    26   1
    27    25    27   1
    28    27    28   2
    29    27    29  am
    30    29    30   1
    31    30    31   1
    32    30    32   1
    33    32    33   2
    34    32    34  am
    35     1    35   1
    36     2    36   1
    37     3    37   1
    38     4    38   1
    39     5    39   1
    40     7    40   1
    41     7    41   1
    42     8    42   1
    43     9    43   1
    44    12    44   1
    45    13    45   1
    46    13    46   1
    47    17    47   1
    48    19    48   1
    49    19    49   1
    50    19    50   1
    51    24    51   1
    52    24    52   1
    53    25    53   1
    54    26    54   1
    55    26    55   1
    56    26    56   1
    57    29    57   1
    58    30    58   1
    59    31    59   1
    60    31    60   1
    61    31    61   1
    62    34    62   1
    63    34    63   1
@<TRIPOS>SUBSTRUCTURE
     1  RX4      1

