@<TRIPOS>MOLECULE
2x97_ligand_015
    63    63
SMALL
GAST_HUCK
****
This file was generated by PARSER (from files_GN.cpp)

@<TRIPOS>ATOM
      1 CAP        27.3315   -5.0019   44.2687 C.ar        1 RX4      -0.0602
      2 CAN        27.7723   -4.5929   45.5416 C.ar        1 RX4      -0.0686
      3 CAM        27.8126   -3.2268   45.8684 C.ar        1 RX4      -0.0687
      4 CAO        27.3989   -2.2702   44.9214 C.ar        1 RX4      -0.0686
      5 CAQ        27.0016   -2.6746   43.6405 C.ar        1 RX4      -0.0602
      6 CBC        26.9888   -4.0477   43.2779 C.ar        1 RX4      -0.0393
      7 CAS        26.6280   -4.4088   41.8778 C.3         1 RX4       0.0205
      8 CBG        27.0415   -5.8160   41.3279 C.3         1 RX4       0.1158
      9 NAW        28.4334   -6.0229   41.6205 N.am        1 RX4      -0.2644
     10 CBB        28.9583   -7.0178   42.3299 C.2         1 RX4       0.2049
     11 OAI        28.2350   -7.9214   42.7318 O.2         1 RX4      -0.3944
     12 CBF        30.3822   -6.9811   42.6670 C.3         1 RX4       0.1421
     13 CAR        31.0052   -8.3504   43.1414 C.3         1 RX4       0.0406
     14 CAZ        31.6379   -8.3574   44.4755 C.2         1 RX4       0.0393
     15 OAK        30.9133   -8.1284   45.5937 O.co2       1 RX4      -0.5688
     16 OAG        32.9318   -8.7304   44.6154 O.co2       1 RX4      -0.5688
     17 NAU        30.5399   -5.9198   43.6294 N.am        1 RX4      -0.2643
     18 CAX        31.4662   -4.9684   43.6524 C.2         1 RX4       0.1752
     19 CAA        31.3821   -3.9400   44.6652 C.3         1 RX4       0.0258
     20 OAE        32.3595   -4.9117   42.8178 O.2         1 RX4      -0.3972
     21 P1         26.7237   -6.0282   39.6802 P.3         1 RX4       0.0153
     22 O4         26.4099   -4.7582   39.0616 O.co2       1 RX4      -0.6174
     23 O3         25.5254   -6.8256   39.5182 O.co2       1 RX4      -0.6174
     24 CAT        27.9555   -6.7010   38.7651 C.3         1 RX4       0.0350
     25 CBD        27.7274   -7.1061   37.2591 C.3         1 RX4       0.0618
     26 CAB        27.5749   -8.6478   37.0635 C.3         1 RX4      -0.0438
     27 CBA        26.6556   -6.3824   36.5729 C.2         1 RX4       0.1825
     28 OAH        26.9368   -5.6237   35.6411 O.2         1 RX4      -0.3966
     29 N          25.4054   -6.5260   36.9969 N.am        1 RX4      -0.2656
     30 CA         24.2255   -5.8269   36.5608 C.3         1 RX4       0.1278
     31 CB         23.3806   -6.7536   35.6571 C.3         1 RX4      -0.0244
     32 C          23.4940   -5.4055   37.7463 C.2         1 RX4       0.1989
     33 O          23.1955   -6.2087   38.6262 O.2         1 RX4      -0.3947
     34 NAD        23.1224   -4.1582   37.9236 N.am        1 RX4      -0.2990
     35 H1         27.2956   -6.0099   44.0751 H           1 RX4       0.0557
     36 H2         28.0541   -5.2945   46.2348 H           1 RX4       0.0599
     37 H3         28.1390   -2.9333   46.7879 H           1 RX4       0.0559
     38 H4         27.4081   -1.2805   45.1643 H           1 RX4       0.0599
     39 H5         26.7469   -1.9606   42.9526 H           1 RX4       0.0557
     40 H6         27.0889   -3.6642   41.2245 H           1 RX4       0.0465
     41 H7         25.5426   -4.3010   41.7826 H           1 RX4       0.0465
     42 H8         26.4217   -6.5501   41.8506 H           1 RX4       0.0788
     43 H9         29.0490   -5.3480   41.2860 H           1 RX4       0.1872
     44 H10        30.9014   -6.7155   41.7379 H           1 RX4       0.0819
     45 H11        31.7556   -8.6579   42.4090 H           1 RX4       0.0478
     46 H12        30.2752   -9.1655   43.1502 H           1 RX4       0.0478
     47 H13        29.8994   -5.9030   44.3602 H           1 RX4       0.1884
     48 H14        32.2201   -3.2422   44.6054 H           1 RX4       0.0467
     49 H15        31.3912   -4.3999   45.6524 H           1 RX4       0.0467
     50 H16        30.4577   -3.3740   44.5439 H           1 RX4       0.0467
     51 H17        28.3089   -7.5861   39.3152 H           1 RX4       0.0493
     52 H18        28.7866   -5.9880   38.8006 H           1 RX4       0.0493
     53 H19        28.6663   -6.8638   36.7458 H           1 RX4       0.0551
     54 H20        27.4563   -8.8798   36.0012 H           1 RX4       0.0257
     55 H21        26.7050   -9.0287   37.6077 H           1 RX4       0.0257
     56 H22        28.4651   -9.1641   37.4269 H           1 RX4       0.0257
     57 H23        25.2624   -7.1811   37.6975 H           1 RX4       0.1883
     58 H24        24.4980   -4.9429   35.9742 H           1 RX4       0.0797
     59 H25        22.4937   -6.2213   35.3139 H           1 RX4       0.0277
     60 H26        23.0718   -7.6598   36.1931 H           1 RX4       0.0277
     61 H27        23.9656   -7.0535   34.7851 H           1 RX4       0.0277
     62 H28        22.6089   -3.9096   38.7070 H           1 RX4       0.1815
     63 H29        23.3417   -3.4809   37.2632 H           1 RX4       0.1815
@<TRIPOS>BOND
     1     1     2  ar
     2     1     6  ar
     3     2     3  ar
     4     3     4  ar
     5     4     5  ar
     6     5     6  ar
     7     6     7   1
     8     7     8   1
     9     8     9   1
    10     8    21   1
    11     9    10  am
    12    10    11   2
    13    10    12   1
    14    12    13   1
    15    12    17   1
    16    13    14   1
    17    14    15  ar
    18    14    16  ar
    19    17    18  am
    20    18    19   1
    21    18    20   2
    22    21    22  ar
    23    21    23  ar
    24    21    24   1
    25    24    25   1
    26    25    26   1
    27    25    27   1
    28    27    28   2
    29    27    29  am
    30    29    30   1
    31    30    31   1
    32    30    32   1
    33    32    33   2
    34    32    34  am
    35     1    35   1
    36     2    36   1
    37     3    37   1
    38     4    38   1
    39     5    39   1
    40     7    40   1
    41     7    41   1
    42     8    42   1
    43     9    43   1
    44    12    44   1
    45    13    45   1
    46    13    46   1
    47    17    47   1
    48    19    48   1
    49    19    49   1
    50    19    50   1
    51    24    51   1
    52    24    52   1
    53    25    53   1
    54    26    54   1
    55    26    55   1
    56    26    56   1
    57    29    57   1
    58    30    58   1
    59    31    59   1
    60    31    60   1
    61    31    61   1
    62    34    62   1
    63    34    63   1
@<TRIPOS>SUBSTRUCTURE
     1  RX4      1

