@<TRIPOS>MOLECULE
2x97_ligand_056
    63    63
SMALL
GAST_HUCK
****
This file was generated by PARSER (from files_GN.cpp)

@<TRIPOS>ATOM
      1 CAP        28.0252   -8.5404   37.9881 C.ar        1 RX4      -0.0602
      2 CAN        29.1859   -8.8434   37.2490 C.ar        1 RX4      -0.0686
      3 CAM        30.4384   -8.9241   37.8896 C.ar        1 RX4      -0.0687
      4 CAO        30.5208   -8.7310   39.2810 C.ar        1 RX4      -0.0686
      5 CAQ        29.3581   -8.4667   40.0268 C.ar        1 RX4      -0.0602
      6 CBC        28.0965   -8.3493   39.3882 C.ar        1 RX4      -0.0393
      7 CAS        26.8572   -8.0948   40.1831 C.3         1 RX4       0.0205
      8 CBG        26.4822   -6.5961   40.4328 C.3         1 RX4       0.1158
      9 NAW        26.0751   -5.9721   39.1974 N.am        1 RX4      -0.2644
     10 CBB        24.8505   -5.5820   38.8431 C.2         1 RX4       0.2049
     11 OAI        23.9083   -5.7725   39.6100 O.2         1 RX4      -0.3944
     12 CBF        24.5683   -4.8630   37.5940 C.3         1 RX4       0.1421
     13 CAR        23.4775   -5.5680   36.7276 C.3         1 RX4       0.0406
     14 CAZ        23.9179   -6.8139   36.0672 C.2         1 RX4       0.0393
     15 OAK        24.6542   -7.7220   36.7488 O.co2       1 RX4      -0.5688
     16 OAG        23.2400   -7.2645   34.9832 O.co2       1 RX4      -0.5688
     17 NAU        25.7121   -4.5757   36.7635 N.am        1 RX4      -0.2643
     18 CAX        26.8382   -3.9899   37.1351 C.2         1 RX4       0.1752
     19 CAA        27.8755   -3.7677   36.1519 C.3         1 RX4       0.0258
     20 OAE        27.0417   -3.6699   38.3039 O.2         1 RX4      -0.3972
     21 P1         27.6792   -5.6832   41.1693 P.3         1 RX4       0.0153
     22 O4         28.5795   -5.1605   40.1668 O.co2       1 RX4      -0.6174
     23 O3         28.4719   -6.5590   42.0023 O.co2       1 RX4      -0.6174
     24 CAT        27.1182   -4.4070   42.0958 C.3         1 RX4       0.0350
     25 CBD        28.1708   -3.7315   43.0518 C.3         1 RX4       0.0618
     26 CAB        27.6374   -2.3802   43.6121 C.3         1 RX4      -0.0438
     27 CBA        28.5981   -4.6086   44.1425 C.2         1 RX4       0.1825
     28 OAH        27.7584   -4.9905   44.9557 O.2         1 RX4      -0.3966
     29 N          29.8485   -5.0630   44.1922 N.am        1 RX4      -0.2656
     30 CA         30.4097   -6.0457   45.0849 C.3         1 RX4       0.1278
     31 CB         30.8253   -7.2870   44.2542 C.3         1 RX4      -0.0244
     32 C          31.5485   -5.5417   45.8395 C.2         1 RX4       0.1989
     33 O          31.9544   -6.1638   46.8122 O.2         1 RX4      -0.3947
     34 NAD        32.2299   -4.4649   45.5079 N.am        1 RX4      -0.2990
     35 H1         27.1239   -8.4807   37.4967 H           1 RX4       0.0557
     36 H2         29.1153   -9.0150   36.2482 H           1 RX4       0.0599
     37 H3         31.2802   -9.1321   37.3483 H           1 RX4       0.0559
     38 H4         31.4247   -8.8008   39.7552 H           1 RX4       0.0599
     39 H5         29.4409   -8.3479   41.0444 H           1 RX4       0.0557
     40 H6         26.9410   -8.5975   41.1530 H           1 RX4       0.0465
     41 H7         26.0131   -8.5811   39.6845 H           1 RX4       0.0465
     42 H8         25.6540   -6.6153   41.1433 H           1 RX4       0.0788
     43 H9         26.7805   -5.8160   38.5511 H           1 RX4       0.1872
     44 H10        24.1445   -3.8967   37.8896 H           1 RX4       0.0819
     45 H11        23.1707   -4.8674   35.9487 H           1 RX4       0.0478
     46 H12        22.5940   -5.7888   37.3304 H           1 RX4       0.0478
     47 H13        25.6137   -4.7681   35.8171 H           1 RX4       0.1884
     48 H14        28.7469   -3.2689   36.5866 H           1 RX4       0.0467
     49 H15        27.4915   -3.1397   35.3406 H           1 RX4       0.0467
     50 H16        28.2029   -4.7240   35.7316 H           1 RX4       0.0467
     51 H17        26.2702   -4.7607   42.6919 H           1 RX4       0.0493
     52 H18        26.7380   -3.6454   41.4058 H           1 RX4       0.0493
     53 H19        29.0478   -3.4699   42.4440 H           1 RX4       0.0551
     54 H20        28.3943   -1.8969   44.2363 H           1 RX4       0.0257
     55 H21        26.7346   -2.5335   44.2102 H           1 RX4       0.0257
     56 H22        27.3922   -1.6998   42.7924 H           1 RX4       0.0257
     57 H23        30.4486   -4.7324   43.5043 H           1 RX4       0.1883
     58 H24        29.6559   -6.3701   45.8142 H           1 RX4       0.0797
     59 H25        31.3074   -8.0406   44.8834 H           1 RX4       0.0277
     60 H26        31.5201   -6.9998   43.4580 H           1 RX4       0.0277
     61 H27        29.9464   -7.7473   43.8022 H           1 RX4       0.0277
     62 H28        33.0093   -4.2084   46.0238 H           1 RX4       0.1815
     63 H29        31.9787   -3.9375   44.7349 H           1 RX4       0.1815
@<TRIPOS>BOND
     1     1     2  ar
     2     1     6  ar
     3     2     3  ar
     4     3     4  ar
     5     4     5  ar
     6     5     6  ar
     7     6     7   1
     8     7     8   1
     9     8     9   1
    10     8    21   1
    11     9    10  am
    12    10    11   2
    13    10    12   1
    14    12    13   1
    15    12    17   1
    16    13    14   1
    17    14    15  ar
    18    14    16  ar
    19    17    18  am
    20    18    19   1
    21    18    20   2
    22    21    22  ar
    23    21    23  ar
    24    21    24   1
    25    24    25   1
    26    25    26   1
    27    25    27   1
    28    27    28   2
    29    27    29  am
    30    29    30   1
    31    30    31   1
    32    30    32   1
    33    32    33   2
    34    32    34  am
    35     1    35   1
    36     2    36   1
    37     3    37   1
    38     4    38   1
    39     5    39   1
    40     7    40   1
    41     7    41   1
    42     8    42   1
    43     9    43   1
    44    12    44   1
    45    13    45   1
    46    13    46   1
    47    17    47   1
    48    19    48   1
    49    19    49   1
    50    19    50   1
    51    24    51   1
    52    24    52   1
    53    25    53   1
    54    26    54   1
    55    26    55   1
    56    26    56   1
    57    29    57   1
    58    30    58   1
    59    31    59   1
    60    31    60   1
    61    31    61   1
    62    34    62   1
    63    34    63   1
@<TRIPOS>SUBSTRUCTURE
     1  RX4      1

