@<TRIPOS>MOLECULE
2x97_ligand_016
    63    63
SMALL
GAST_HUCK
****
This file was generated by PARSER (from files_GN.cpp)

@<TRIPOS>ATOM
      1 CAP        25.6693   -6.6938   38.2605 C.ar        1 RX4      -0.0602
      2 CAN        24.7660   -5.6370   38.4622 C.ar        1 RX4      -0.0686
      3 CAM        24.7361   -4.5646   37.5564 C.ar        1 RX4      -0.0687
      4 CAO        25.6051   -4.5504   36.4494 C.ar        1 RX4      -0.0686
      5 CAQ        26.5007   -5.6167   36.2379 C.ar        1 RX4      -0.0602
      6 CBC        26.5404   -6.6990   37.1464 C.ar        1 RX4      -0.0393
      7 CAS        27.5148   -7.8164   37.0070 C.3         1 RX4       0.0205
      8 CBG        28.7243   -7.6458   37.9945 C.3         1 RX4       0.1158
      9 NAW        29.6640   -6.7418   37.3855 N.am        1 RX4      -0.2644
     10 CBB        29.6886   -5.4117   37.5264 C.2         1 RX4       0.2049
     11 OAI        28.8899   -4.8481   38.2701 O.2         1 RX4      -0.3944
     12 CBF        30.6401   -4.5991   36.7772 C.3         1 RX4       0.1421
     13 CAR        31.8119   -4.1540   37.7035 C.3         1 RX4       0.0406
     14 CAZ        32.6642   -3.0615   37.2030 C.2         1 RX4       0.0393
     15 OAK        33.3753   -2.3535   38.1074 O.co2       1 RX4      -0.5688
     16 OAG        32.6701   -2.6463   35.9208 O.co2       1 RX4      -0.5688
     17 NAU        29.9482   -3.4492   36.2633 N.am        1 RX4      -0.2643
     18 CAX        29.4047   -3.3047   35.0604 C.2         1 RX4       0.1752
     19 CAA        28.7467   -2.0596   34.7463 C.3         1 RX4       0.0258
     20 OAE        29.4186   -4.2065   34.2308 O.2         1 RX4      -0.3972
     21 P1         29.4257   -9.0888   38.5094 P.3         1 RX4       0.0153
     22 O4         30.8623   -9.0024   38.4117 O.co2       1 RX4      -0.6174
     23 O3         29.1367  -10.1679   37.5883 O.co2       1 RX4      -0.6174
     24 CAT        29.0859   -9.6086   40.0749 C.3         1 RX4       0.0350
     25 CBD        27.8094   -9.0641   40.8144 C.3         1 RX4       0.0618
     26 CAB        26.4545   -9.5245   40.1965 C.3         1 RX4      -0.0438
     27 CBA        27.8453   -9.3328   42.2526 C.2         1 RX4       0.1825
     28 OAH        27.9401   -8.3749   43.0120 O.2         1 RX4      -0.3966
     29 N          27.7653  -10.5706   42.7372 N.am        1 RX4      -0.2656
     30 CA         27.6901  -10.9516   44.1215 C.3         1 RX4       0.1278
     31 CB         26.5194  -11.9478   44.3278 C.3         1 RX4      -0.0244
     32 C          28.9656  -11.5151   44.5290 C.2         1 RX4       0.1989
     33 O          29.6894  -10.9093   45.3111 O.2         1 RX4      -0.3947
     34 NAD        29.3866  -12.6744   44.0664 N.am        1 RX4      -0.2990
     35 H1         25.6848   -7.4539   38.9320 H           1 RX4       0.0557
     36 H2         24.1398   -5.6555   39.2712 H           1 RX4       0.0599
     37 H3         24.0839   -3.7960   37.7110 H           1 RX4       0.0559
     38 H4         25.5837   -3.7728   35.7950 H           1 RX4       0.0599
     39 H5         27.1266   -5.5936   35.4278 H           1 RX4       0.0557
     40 H6         27.8804   -7.8823   35.9831 H           1 RX4       0.0465
     41 H7         26.9644   -8.7433   37.1800 H           1 RX4       0.0465
     42 H8         28.3509   -7.1793   38.8922 H           1 RX4       0.0788
     43 H9         30.2766   -7.1314   36.7434 H           1 RX4       0.1872
     44 H10        31.0717   -5.1826   35.9514 H           1 RX4       0.0819
     45 H11        32.4592   -5.0102   37.8997 H           1 RX4       0.0478
     46 H12        31.4030   -3.8205   38.6591 H           1 RX4       0.0478
     47 H13        29.8537   -2.6977   36.8715 H           1 RX4       0.1884
     48 H14        28.3145   -2.0715   33.7403 H           1 RX4       0.0467
     49 H15        29.4641   -1.2349   34.8037 H           1 RX4       0.0467
     50 H16        27.9420   -1.8763   35.4643 H           1 RX4       0.0467
     51 H17        29.9563   -9.3372   40.6840 H           1 RX4       0.0493
     52 H18        29.0410  -10.7044   40.0586 H           1 RX4       0.0493
     53 H19        27.8171   -7.9777   40.7131 H           1 RX4       0.0551
     54 H20        25.6602   -8.8504   40.5206 H           1 RX4       0.0257
     55 H21        26.1907  -10.5384   40.4973 H           1 RX4       0.0257
     56 H22        26.4883   -9.5043   39.1096 H           1 RX4       0.0257
     57 H23        27.7116  -11.2929   42.0890 H           1 RX4       0.1883
     58 H24        27.4687  -10.0858   44.7585 H           1 RX4       0.0797
     59 H25        26.4654  -12.2516   45.3768 H           1 RX4       0.0277
     60 H26        26.6442  -12.8405   43.7094 H           1 RX4       0.0277
     61 H27        25.5758  -11.4659   44.0561 H           1 RX4       0.0277
     62 H28        30.2508  -13.0255   44.3365 H           1 RX4       0.1815
     63 H29        28.8285  -13.1776   43.4449 H           1 RX4       0.1815
@<TRIPOS>BOND
     1     1     2  ar
     2     1     6  ar
     3     2     3  ar
     4     3     4  ar
     5     4     5  ar
     6     5     6  ar
     7     6     7   1
     8     7     8   1
     9     8     9   1
    10     8    21   1
    11     9    10  am
    12    10    11   2
    13    10    12   1
    14    12    13   1
    15    12    17   1
    16    13    14   1
    17    14    15  ar
    18    14    16  ar
    19    17    18  am
    20    18    19   1
    21    18    20   2
    22    21    22  ar
    23    21    23  ar
    24    21    24   1
    25    24    25   1
    26    25    26   1
    27    25    27   1
    28    27    28   2
    29    27    29  am
    30    29    30   1
    31    30    31   1
    32    30    32   1
    33    32    33   2
    34    32    34  am
    35     1    35   1
    36     2    36   1
    37     3    37   1
    38     4    38   1
    39     5    39   1
    40     7    40   1
    41     7    41   1
    42     8    42   1
    43     9    43   1
    44    12    44   1
    45    13    45   1
    46    13    46   1
    47    17    47   1
    48    19    48   1
    49    19    49   1
    50    19    50   1
    51    24    51   1
    52    24    52   1
    53    25    53   1
    54    26    54   1
    55    26    55   1
    56    26    56   1
    57    29    57   1
    58    30    58   1
    59    31    59   1
    60    31    60   1
    61    31    61   1
    62    34    62   1
    63    34    63   1
@<TRIPOS>SUBSTRUCTURE
     1  RX4      1

