@<TRIPOS>MOLECULE
2x97_ligand_006
    63    63
SMALL
GAST_HUCK
****
This file was generated by PARSER (from files_GN.cpp)

@<TRIPOS>ATOM
      1 CAP        28.4021   -9.2498   37.2976 C.ar        1 RX4      -0.0602
      2 CAN        29.6806   -9.5314   36.7802 C.ar        1 RX4      -0.0686
      3 CAM        30.8055   -9.4868   37.6175 C.ar        1 RX4      -0.0687
      4 CAO        30.6536   -9.1980   38.9810 C.ar        1 RX4      -0.0686
      5 CAQ        29.3689   -8.9332   39.5046 C.ar        1 RX4      -0.0602
      6 CBC        28.2223   -8.9648   38.6722 C.ar        1 RX4      -0.0393
      7 CAS        26.8540   -8.8573   39.2612 C.3         1 RX4       0.0205
      8 CBG        26.3009   -7.4660   39.7201 C.3         1 RX4       0.1158
      9 NAW        25.9339   -6.6158   38.6093 N.am        1 RX4      -0.2644
     10 CBB        24.8401   -5.8442   38.5341 C.2         1 RX4       0.2049
     11 OAI        24.0142   -5.8597   39.4459 O.2         1 RX4      -0.3944
     12 CBF        24.5529   -4.9401   37.4233 C.3         1 RX4       0.1421
     13 CAR        23.4078   -5.4921   36.5118 C.3         1 RX4       0.0406
     14 CAZ        23.7035   -6.7547   35.8111 C.2         1 RX4       0.0393
     15 OAK        24.3248   -7.7638   36.4603 O.co2       1 RX4      -0.5688
     16 OAG        23.0514   -7.0749   34.6751 O.co2       1 RX4      -0.5688
     17 NAU        25.6833   -4.5649   36.6232 N.am        1 RX4      -0.2643
     18 CAX        26.7746   -3.9370   37.0366 C.2         1 RX4       0.1752
     19 CAA        27.7645   -3.5489   36.0639 C.3         1 RX4       0.0258
     20 OAE        26.9691   -3.6915   38.2235 O.2         1 RX4      -0.3972
     21 P1         27.2186   -6.6264   40.8473 P.3         1 RX4       0.0153
     22 O4         26.7448   -5.2522   40.9152 O.co2       1 RX4      -0.6174
     23 O3         28.5794   -6.4932   40.3886 O.co2       1 RX4      -0.6174
     24 CAT        27.1717   -7.3178   42.3674 C.3         1 RX4       0.0350
     25 CBD        27.3283   -6.3490   43.5860 C.3         1 RX4       0.0618
     26 CAB        26.8482   -7.0177   44.9086 C.3         1 RX4      -0.0438
     27 CBA        28.6853   -5.8253   43.7171 C.2         1 RX4       0.1825
     28 OAH        29.5256   -6.4756   44.3347 O.2         1 RX4      -0.3966
     29 N          29.0102   -4.6780   43.1241 N.am        1 RX4      -0.2656
     30 CA         30.2597   -3.9760   43.1614 C.3         1 RX4       0.1278
     31 CB         30.6508   -3.6764   44.6322 C.3         1 RX4      -0.0244
     32 C          31.2966   -4.5952   42.3441 C.2         1 RX4       0.1989
     33 O          32.4668   -4.6109   42.7030 O.2         1 RX4      -0.3947
     34 NAD        31.0258   -5.1084   41.1719 N.am        1 RX4      -0.2990
     35 H1         27.5941   -9.2873   36.6735 H           1 RX4       0.0557
     36 H2         29.7763   -9.8120   35.8055 H           1 RX4       0.0599
     37 H3         31.7287   -9.7000   37.2419 H           1 RX4       0.0559
     38 H4         31.4731   -9.1543   39.5863 H           1 RX4       0.0599
     39 H5         29.2847   -8.7919   40.5144 H           1 RX4       0.0557
     40 H6         26.8076   -9.5427   40.1154 H           1 RX4       0.0465
     41 H7         26.1432   -9.2618   38.5349 H           1 RX4       0.0465
     42 H8         25.3802   -7.7328   40.2495 H           1 RX4       0.0788
     43 H9         26.5697   -6.5635   37.8766 H           1 RX4       0.1872
     44 H10        24.1728   -4.0142   37.8612 H           1 RX4       0.0819
     45 H11        23.1743   -4.7347   35.7609 H           1 RX4       0.0478
     46 H12        22.5018   -5.6405   37.1037 H           1 RX4       0.0478
     47 H13        25.5934   -4.7006   35.6691 H           1 RX4       0.1884
     48 H14        28.6104   -3.0440   36.5314 H           1 RX4       0.0467
     49 H15        27.3130   -2.8643   35.3452 H           1 RX4       0.0467
     50 H16        28.1322   -4.4288   35.5361 H           1 RX4       0.0467
     51 H17        27.9342   -8.0999   42.4153 H           1 RX4       0.0493
     52 H18        26.2009   -7.8038   42.4700 H           1 RX4       0.0493
     53 H19        26.6331   -5.5115   43.4341 H           1 RX4       0.0551
     54 H20        26.9490   -6.3251   45.7499 H           1 RX4       0.0257
     55 H21        27.4255   -7.9196   45.1240 H           1 RX4       0.0257
     56 H22        25.7925   -7.2973   44.8299 H           1 RX4       0.0257
     57 H23        28.2995   -4.2628   42.6017 H           1 RX4       0.1883
     58 H24        30.0565   -3.0070   42.7042 H           1 RX4       0.0797
     59 H25        31.5263   -3.0240   44.6679 H           1 RX4       0.0277
     60 H26        30.8779   -4.5934   45.1734 H           1 RX4       0.0277
     61 H27        29.8266   -3.1675   45.1347 H           1 RX4       0.0277
     62 H28        31.7260   -5.5263   40.6494 H           1 RX4       0.1815
     63 H29        30.1199   -5.0920   40.8308 H           1 RX4       0.1815
@<TRIPOS>BOND
     1     1     2  ar
     2     1     6  ar
     3     2     3  ar
     4     3     4  ar
     5     4     5  ar
     6     5     6  ar
     7     6     7   1
     8     7     8   1
     9     8     9   1
    10     8    21   1
    11     9    10  am
    12    10    11   2
    13    10    12   1
    14    12    13   1
    15    12    17   1
    16    13    14   1
    17    14    15  ar
    18    14    16  ar
    19    17    18  am
    20    18    19   1
    21    18    20   2
    22    21    22  ar
    23    21    23  ar
    24    21    24   1
    25    24    25   1
    26    25    26   1
    27    25    27   1
    28    27    28   2
    29    27    29  am
    30    29    30   1
    31    30    31   1
    32    30    32   1
    33    32    33   2
    34    32    34  am
    35     1    35   1
    36     2    36   1
    37     3    37   1
    38     4    38   1
    39     5    39   1
    40     7    40   1
    41     7    41   1
    42     8    42   1
    43     9    43   1
    44    12    44   1
    45    13    45   1
    46    13    46   1
    47    17    47   1
    48    19    48   1
    49    19    49   1
    50    19    50   1
    51    24    51   1
    52    24    52   1
    53    25    53   1
    54    26    54   1
    55    26    55   1
    56    26    56   1
    57    29    57   1
    58    30    58   1
    59    31    59   1
    60    31    60   1
    61    31    61   1
    62    34    62   1
    63    34    63   1
@<TRIPOS>SUBSTRUCTURE
     1  RX4      1

