@<TRIPOS>MOLECULE
2x97_ligand_055
    63    63
SMALL
GAST_HUCK
****
This file was generated by PARSER (from files_GN.cpp)

@<TRIPOS>ATOM
      1 CAP        27.5971   -8.7276   45.3855 C.ar        1 RX4      -0.0602
      2 CAN        26.6000   -9.3246   46.1769 C.ar        1 RX4      -0.0686
      3 CAM        25.8990  -10.4436   45.6955 C.ar        1 RX4      -0.0687
      4 CAO        26.1865  -10.9537   44.4167 C.ar        1 RX4      -0.0686
      5 CAQ        27.1850  -10.3560   43.6237 C.ar        1 RX4      -0.0602
      6 CBC        27.9119   -9.2400   44.1029 C.ar        1 RX4      -0.0393
      7 CAS        29.0120   -8.6471   43.2921 C.3         1 RX4       0.0205
      8 CBG        28.5372   -7.6881   42.1319 C.3         1 RX4       0.1158
      9 NAW        28.6012   -8.3658   40.8574 N.am        1 RX4      -0.2644
     10 CBB        28.0435   -7.9779   39.7095 C.2         1 RX4       0.2049
     11 OAI        27.2944   -7.0085   39.7024 O.2         1 RX4      -0.3944
     12 CBF        28.3323   -8.6928   38.4613 C.3         1 RX4       0.1421
     13 CAR        29.8616   -8.7285   38.1144 C.3         1 RX4       0.0406
     14 CAZ        30.6600   -9.6289   38.9740 C.2         1 RX4       0.0393
     15 OAK        30.6476  -10.9653   38.7650 O.co2       1 RX4      -0.5688
     16 OAG        31.4441   -9.1374   39.9626 O.co2       1 RX4      -0.5688
     17 NAU        27.5389   -8.2251   37.3427 N.am        1 RX4      -0.2643
     18 CAX        27.6536   -7.0856   36.6653 C.2         1 RX4       0.1752
     19 CAA        26.7064   -6.7942   35.6090 C.3         1 RX4       0.0258
     20 OAE        28.5259   -6.2657   36.9245 O.2         1 RX4      -0.3972
     21 P1         29.3973   -6.2310   42.1159 P.3         1 RX4       0.0153
     22 O4         29.5346   -5.7158   40.7757 O.co2       1 RX4      -0.6174
     23 O3         30.7597   -6.4884   42.4961 O.co2       1 RX4      -0.6174
     24 CAT        28.6440   -5.0302   43.0257 C.3         1 RX4       0.0350
     25 CBD        29.4286   -4.2709   44.1551 C.3         1 RX4       0.0618
     26 CAB        30.7982   -3.6604   43.7299 C.3         1 RX4      -0.0438
     27 CBA        28.5925   -3.2023   44.7306 C.2         1 RX4       0.1825
     28 OAH        28.2696   -3.2687   45.9098 O.2         1 RX4      -0.3966
     29 N          28.2576   -2.1549   43.9803 N.am        1 RX4      -0.2656
     30 CA         27.5877   -0.9413   44.3741 C.3         1 RX4       0.1278
     31 CB         27.5207   -0.0430   43.1093 C.3         1 RX4      -0.0244
     32 C          26.2948   -1.1863   45.0139 C.2         1 RX4       0.1989
     33 O          26.2580   -1.6486   46.1468 O.2         1 RX4      -0.3947
     34 NAD        25.1325   -0.8740   44.4760 N.am        1 RX4      -0.2990
     35 H1         28.1022   -7.9184   45.7597 H           1 RX4       0.0557
     36 H2         26.3906   -8.9520   47.1074 H           1 RX4       0.0599
     37 H3         25.1857  -10.8866   46.2775 H           1 RX4       0.0559
     38 H4         25.6758  -11.7652   44.0648 H           1 RX4       0.0599
     39 H5         27.3930  -10.7520   42.7048 H           1 RX4       0.0557
     40 H6         29.6202   -9.4606   42.8838 H           1 RX4       0.0465
     41 H7         29.6828   -8.1354   43.9911 H           1 RX4       0.0465
     42 H8         27.4867   -7.4384   42.3052 H           1 RX4       0.0788
     43 H9         29.1243   -9.1820   40.8294 H           1 RX4       0.1872
     44 H10        27.9997   -9.7236   38.6174 H           1 RX4       0.0819
     45 H11        30.2758   -7.7195   38.1842 H           1 RX4       0.0478
     46 H12        30.0011   -9.0654   37.0848 H           1 RX4       0.0478
     47 H13        26.8199   -8.8129   37.0579 H           1 RX4       0.1884
     48 H14        26.9687   -5.8747   35.0794 H           1 RX4       0.0467
     49 H15        25.7090   -6.6758   36.0349 H           1 RX4       0.0467
     50 H16        26.6852   -7.6093   34.8834 H           1 RX4       0.0467
     51 H17        27.7718   -5.4803   43.5028 H           1 RX4       0.0493
     52 H18        28.2555   -4.2979   42.3101 H           1 RX4       0.0493
     53 H19        29.6452   -5.0043   44.9449 H           1 RX4       0.0551
     54 H20        31.1704   -2.9788   44.4982 H           1 RX4       0.0257
     55 H21        30.6961   -3.1195   42.7888 H           1 RX4       0.0257
     56 H22        31.5555   -4.4339   43.6056 H           1 RX4       0.0257
     57 H23        28.5773   -2.1782   43.0621 H           1 RX4       0.1883
     58 H24        28.2105   -0.3925   45.0860 H           1 RX4       0.0797
     59 H25        27.0541    0.9175   43.3434 H           1 RX4       0.0277
     60 H26        26.9454   -0.5339   42.3208 H           1 RX4       0.0277
     61 H27        28.5285    0.1484   42.7298 H           1 RX4       0.0277
     62 H28        24.3097   -1.0723   44.9476 H           1 RX4       0.1815
     63 H29        25.0862   -0.4853   43.5896 H           1 RX4       0.1815
@<TRIPOS>BOND
     1     1     2  ar
     2     1     6  ar
     3     2     3  ar
     4     3     4  ar
     5     4     5  ar
     6     5     6  ar
     7     6     7   1
     8     7     8   1
     9     8     9   1
    10     8    21   1
    11     9    10  am
    12    10    11   2
    13    10    12   1
    14    12    13   1
    15    12    17   1
    16    13    14   1
    17    14    15  ar
    18    14    16  ar
    19    17    18  am
    20    18    19   1
    21    18    20   2
    22    21    22  ar
    23    21    23  ar
    24    21    24   1
    25    24    25   1
    26    25    26   1
    27    25    27   1
    28    27    28   2
    29    27    29  am
    30    29    30   1
    31    30    31   1
    32    30    32   1
    33    32    33   2
    34    32    34  am
    35     1    35   1
    36     2    36   1
    37     3    37   1
    38     4    38   1
    39     5    39   1
    40     7    40   1
    41     7    41   1
    42     8    42   1
    43     9    43   1
    44    12    44   1
    45    13    45   1
    46    13    46   1
    47    17    47   1
    48    19    48   1
    49    19    49   1
    50    19    50   1
    51    24    51   1
    52    24    52   1
    53    25    53   1
    54    26    54   1
    55    26    55   1
    56    26    56   1
    57    29    57   1
    58    30    58   1
    59    31    59   1
    60    31    60   1
    61    31    61   1
    62    34    62   1
    63    34    63   1
@<TRIPOS>SUBSTRUCTURE
     1  RX4      1

