@<TRIPOS>MOLECULE
2x97_ligand_043
    63    63
SMALL
GAST_HUCK
****
This file was generated by PARSER (from files_GN.cpp)

@<TRIPOS>ATOM
      1 CAP        27.4319   -8.4344   44.3650 C.ar        1 RX4      -0.0602
      2 CAN        26.4737   -8.9897   45.2274 C.ar        1 RX4      -0.0686
      3 CAM        26.0120  -10.3002   45.0197 C.ar        1 RX4      -0.0687
      4 CAO        26.5079  -11.0531   43.9376 C.ar        1 RX4      -0.0686
      5 CAQ        27.4634  -10.4949   43.0700 C.ar        1 RX4      -0.0602
      6 CBC        27.9464   -9.1768   43.2748 C.ar        1 RX4      -0.0393
      7 CAS        29.0071   -8.5893   42.4070 C.3         1 RX4       0.0205
      8 CBG        28.4857   -7.5024   41.3960 C.3         1 RX4       0.1158
      9 NAW        28.7090   -7.9648   40.0458 N.am        1 RX4      -0.2644
     10 CBB        27.7926   -8.3536   39.1640 C.2         1 RX4       0.2049
     11 OAI        26.6125   -8.4420   39.4769 O.2         1 RX4      -0.3944
     12 CBF        28.1726   -8.6132   37.7719 C.3         1 RX4       0.1421
     13 CAR        27.4028   -7.7774   36.6815 C.3         1 RX4       0.0406
     14 CAZ        26.1734   -7.0685   37.0999 C.2         1 RX4       0.0393
     15 OAK        26.2532   -5.9848   37.9027 O.co2       1 RX4      -0.5688
     16 OAG        24.9727   -7.3718   36.5542 O.co2       1 RX4      -0.5688
     17 NAU        28.2334  -10.0242   37.4788 N.am        1 RX4      -0.2643
     18 CAX        27.3007  -10.9510   37.6539 C.2         1 RX4       0.1752
     19 CAA        27.5928  -12.3099   37.2564 C.3         1 RX4       0.0258
     20 OAE        26.2112  -10.6814   38.1562 O.2         1 RX4      -0.3972
     21 P1         29.1886   -5.9815   41.5748 P.3         1 RX4       0.0153
     22 O4         29.1149   -5.3142   40.2953 O.co2       1 RX4      -0.6174
     23 O3         30.6134   -6.1340   41.7466 O.co2       1 RX4      -0.6174
     24 CAT        28.4537   -4.9510   42.6846 C.3         1 RX4       0.0350
     25 CBD        29.2607   -4.3334   43.8899 C.3         1 RX4       0.0618
     26 CAB        30.6752   -3.7712   43.5579 C.3         1 RX4      -0.0438
     27 CBA        28.4804   -3.2707   44.5387 C.2         1 RX4       0.1825
     28 OAH        28.1785   -3.3847   45.7214 O.2         1 RX4      -0.3966
     29 N          28.2045   -2.1554   43.8681 N.am        1 RX4      -0.2656
     30 CA         27.5934   -0.9392   44.3374 C.3         1 RX4       0.1278
     31 CB         27.5304    0.0386   43.1314 C.3         1 RX4      -0.0244
     32 C          26.3092   -1.1658   45.0089 C.2         1 RX4       0.1989
     33 O          26.2903   -1.6274   46.1391 O.2         1 RX4      -0.3947
     34 NAD        25.1419   -0.8739   44.4831 N.am        1 RX4      -0.2990
     35 H1         27.7728   -7.4863   44.5483 H           1 RX4       0.0557
     36 H2         26.1223   -8.4452   46.0198 H           1 RX4       0.0599
     37 H3         25.3242  -10.7079   45.6546 H           1 RX4       0.0559
     38 H4         26.1731  -12.0079   43.7877 H           1 RX4       0.0599
     39 H5         27.8098  -11.0562   42.2885 H           1 RX4       0.0557
     40 H6         29.5026   -9.3925   41.8525 H           1 RX4       0.0465
     41 H7         29.7838   -8.1896   43.0666 H           1 RX4       0.0465
     42 H8         27.4127   -7.3433   41.5475 H           1 RX4       0.0788
     43 H9         29.6321   -7.9763   39.7425 H           1 RX4       0.1872
     44 H10        29.2209   -8.3143   37.6613 H           1 RX4       0.0819
     45 H11        27.1617   -8.4249   35.8339 H           1 RX4       0.0478
     46 H12        28.0752   -7.0070   36.2908 H           1 RX4       0.0478
     47 H13        29.0776  -10.3412   37.1041 H           1 RX4       0.1884
     48 H14        26.8162  -12.9989   37.5980 H           1 RX4       0.0467
     49 H15        28.5485  -12.6244   37.6878 H           1 RX4       0.0467
     50 H16        27.6577  -12.3650   36.1653 H           1 RX4       0.0467
     51 H17        27.6032   -5.4875   43.1104 H           1 RX4       0.0493
     52 H18        28.0167   -4.1369   42.1012 H           1 RX4       0.0493
     53 H19        29.4143   -5.1411   44.6140 H           1 RX4       0.0551
     54 H20        31.0456   -3.1165   44.3567 H           1 RX4       0.0257
     55 H21        30.6476   -3.2036   42.6255 H           1 RX4       0.0257
     56 H22        31.3965   -4.5846   43.4540 H           1 RX4       0.0257
     57 H23        28.5065   -2.1341   42.9443 H           1 RX4       0.1883
     58 H24        28.2647   -0.4693   45.0588 H           1 RX4       0.0797
     59 H25        27.0921    0.9930   43.4323 H           1 RX4       0.0277
     60 H26        26.9346   -0.3837   42.3209 H           1 RX4       0.0277
     61 H27        28.5370    0.2293   42.7497 H           1 RX4       0.0277
     62 H28        24.3251   -1.0676   44.9730 H           1 RX4       0.1815
     63 H29        25.0812   -0.5125   43.5875 H           1 RX4       0.1815
@<TRIPOS>BOND
     1     1     2  ar
     2     1     6  ar
     3     2     3  ar
     4     3     4  ar
     5     4     5  ar
     6     5     6  ar
     7     6     7   1
     8     7     8   1
     9     8     9   1
    10     8    21   1
    11     9    10  am
    12    10    11   2
    13    10    12   1
    14    12    13   1
    15    12    17   1
    16    13    14   1
    17    14    15  ar
    18    14    16  ar
    19    17    18  am
    20    18    19   1
    21    18    20   2
    22    21    22  ar
    23    21    23  ar
    24    21    24   1
    25    24    25   1
    26    25    26   1
    27    25    27   1
    28    27    28   2
    29    27    29  am
    30    29    30   1
    31    30    31   1
    32    30    32   1
    33    32    33   2
    34    32    34  am
    35     1    35   1
    36     2    36   1
    37     3    37   1
    38     4    38   1
    39     5    39   1
    40     7    40   1
    41     7    41   1
    42     8    42   1
    43     9    43   1
    44    12    44   1
    45    13    45   1
    46    13    46   1
    47    17    47   1
    48    19    48   1
    49    19    49   1
    50    19    50   1
    51    24    51   1
    52    24    52   1
    53    25    53   1
    54    26    54   1
    55    26    55   1
    56    26    56   1
    57    29    57   1
    58    30    58   1
    59    31    59   1
    60    31    60   1
    61    31    61   1
    62    34    62   1
    63    34    63   1
@<TRIPOS>SUBSTRUCTURE
     1  RX4      1

