@<TRIPOS>MOLECULE
2x97_ligand_047
    63    63
SMALL
GAST_HUCK
****
This file was generated by PARSER (from files_GN.cpp)

@<TRIPOS>ATOM
      1 CAP        26.7053   -8.3456   44.0421 C.ar        1 RX4      -0.0602
      2 CAN        25.8739   -9.1585   44.8281 C.ar        1 RX4      -0.0686
      3 CAM        25.8534  -10.5520   44.6284 C.ar        1 RX4      -0.0687
      4 CAO        26.6492  -11.1307   43.6305 C.ar        1 RX4      -0.0686
      5 CAQ        27.5059  -10.3201   42.8588 C.ar        1 RX4      -0.0602
      6 CBC        27.5475   -8.9215   43.0634 C.ar        1 RX4      -0.0393
      7 CAS        28.4849   -8.0556   42.2884 C.3         1 RX4       0.0205
      8 CBG        29.9161   -7.8585   42.9112 C.3         1 RX4       0.1158
      9 NAW        30.2171   -8.6348   44.0971 N.am        1 RX4      -0.2644
     10 CBB        29.7578   -8.5464   45.3461 C.2         1 RX4       0.2049
     11 OAI        28.9039   -7.7168   45.6317 O.2         1 RX4      -0.3944
     12 CBF        30.2726   -9.3565   46.4510 C.3         1 RX4       0.1421
     13 CAR        31.2747  -10.5105   46.1012 C.3         1 RX4       0.0406
     14 CAZ        32.6119  -10.0554   45.6574 C.2         1 RX4       0.0393
     15 OAK        33.7111  -10.4866   46.3185 O.co2       1 RX4      -0.5688
     16 OAG        32.7830   -9.4613   44.4522 O.co2       1 RX4      -0.5688
     17 NAU        29.1777   -9.8212   47.2733 N.am        1 RX4      -0.2643
     18 CAX        28.2707  -10.7438   46.9801 C.2         1 RX4       0.1752
     19 CAA        27.1351  -10.9225   47.8585 C.3         1 RX4       0.0258
     20 OAE        28.3487  -11.4249   45.9650 O.2         1 RX4      -0.3972
     21 P1         30.4704   -6.2666   42.9369 P.3         1 RX4       0.0153
     22 O4         30.6322   -5.8040   41.5806 O.co2       1 RX4      -0.6174
     23 O3         31.8201   -6.2993   43.4317 O.co2       1 RX4      -0.6174
     24 CAT        29.6105   -5.1449   43.8478 C.3         1 RX4       0.0350
     25 CBD        28.9368   -3.9121   43.1403 C.3         1 RX4       0.0618
     26 CAB        27.8406   -4.3625   42.1249 C.3         1 RX4      -0.0438
     27 CBA        28.3611   -2.9428   44.0838 C.2         1 RX4       0.1825
     28 OAH        28.2045   -3.2256   45.2677 O.2         1 RX4      -0.3966
     29 N          28.0197   -1.7304   43.6474 N.am        1 RX4      -0.2656
     30 CA         27.4931   -0.6398   44.4237 C.3         1 RX4       0.1278
     31 CB         27.3894    0.6163   43.5252 C.3         1 RX4      -0.0244
     32 C          26.2420   -0.9812   45.0959 C.2         1 RX4       0.1989
     33 O          26.2734   -1.4900   46.2091 O.2         1 RX4      -0.3947
     34 NAD        25.0599   -0.8356   44.5453 N.am        1 RX4      -0.2990
     35 H1         26.6965   -7.3354   44.1865 H           1 RX4       0.0557
     36 H2         25.2784   -8.7406   45.5476 H           1 RX4       0.0599
     37 H3         25.2552  -11.1400   45.2081 H           1 RX4       0.0559
     38 H4         26.6245  -12.1405   43.4810 H           1 RX4       0.0599
     39 H5         28.0979  -10.7628   42.1544 H           1 RX4       0.0557
     40 H6         27.9877   -7.1011   42.1035 H           1 RX4       0.0465
     41 H7         28.5981   -8.4927   41.2918 H           1 RX4       0.0465
     42 H8         30.5907   -8.3294   42.1898 H           1 RX4       0.0788
     43 H9         30.8920   -9.3183   43.9591 H           1 RX4       0.1872
     44 H10        30.8191   -8.6543   47.0920 H           1 RX4       0.0819
     45 H11        30.8577  -11.1538   45.3240 H           1 RX4       0.0478
     46 H12        31.4062  -11.1246   47.0008 H           1 RX4       0.0478
     47 H13        29.0710   -9.3767   48.1283 H           1 RX4       0.1884
     48 H14        26.4921  -11.7459   47.5289 H           1 RX4       0.0467
     49 H15        26.5383  -10.0088   47.8609 H           1 RX4       0.0467
     50 H16        27.4625  -11.1331   48.8768 H           1 RX4       0.0467
     51 H17        30.3100   -4.7684   44.6005 H           1 RX4       0.0493
     52 H18        28.8206   -5.6697   44.3781 H           1 RX4       0.0493
     53 H19        29.7166   -3.3872   42.5870 H           1 RX4       0.0551
     54 H20        27.3493   -3.5061   41.6560 H           1 RX4       0.0257
     55 H21        27.0798   -4.9659   42.6321 H           1 RX4       0.0257
     56 H22        28.2818   -4.9538   41.3196 H           1 RX4       0.0257
     57 H23        28.2082   -1.5549   42.7088 H           1 RX4       0.1883
     58 H24        28.2390   -0.3962   45.1832 H           1 RX4       0.0797
     59 H25        27.0320    1.4702   44.1032 H           1 RX4       0.0277
     60 H26        26.7082    0.4460   42.6887 H           1 RX4       0.0277
     61 H27        28.3732    0.8609   43.1176 H           1 RX4       0.0277
     62 H28        24.2627   -1.1240   45.0167 H           1 RX4       0.1815
     63 H29        24.9754   -0.4602   43.6582 H           1 RX4       0.1815
@<TRIPOS>BOND
     1     1     2  ar
     2     1     6  ar
     3     2     3  ar
     4     3     4  ar
     5     4     5  ar
     6     5     6  ar
     7     6     7   1
     8     7     8   1
     9     8     9   1
    10     8    21   1
    11     9    10  am
    12    10    11   2
    13    10    12   1
    14    12    13   1
    15    12    17   1
    16    13    14   1
    17    14    15  ar
    18    14    16  ar
    19    17    18  am
    20    18    19   1
    21    18    20   2
    22    21    22  ar
    23    21    23  ar
    24    21    24   1
    25    24    25   1
    26    25    26   1
    27    25    27   1
    28    27    28   2
    29    27    29  am
    30    29    30   1
    31    30    31   1
    32    30    32   1
    33    32    33   2
    34    32    34  am
    35     1    35   1
    36     2    36   1
    37     3    37   1
    38     4    38   1
    39     5    39   1
    40     7    40   1
    41     7    41   1
    42     8    42   1
    43     9    43   1
    44    12    44   1
    45    13    45   1
    46    13    46   1
    47    17    47   1
    48    19    48   1
    49    19    49   1
    50    19    50   1
    51    24    51   1
    52    24    52   1
    53    25    53   1
    54    26    54   1
    55    26    55   1
    56    26    56   1
    57    29    57   1
    58    30    58   1
    59    31    59   1
    60    31    60   1
    61    31    61   1
    62    34    62   1
    63    34    63   1
@<TRIPOS>SUBSTRUCTURE
     1  RX4      1

