@<TRIPOS>MOLECULE
2x97_ligand_067
    63    63
SMALL
GAST_HUCK
****
This file was generated by PARSER (from files_GN.cpp)

@<TRIPOS>ATOM
      1 CAP        31.0320   -7.5072   42.8854 C.ar        1 RX4      -0.0602
      2 CAN        31.0438   -6.6926   44.0301 C.ar        1 RX4      -0.0686
      3 CAM        31.1213   -5.2948   43.8996 C.ar        1 RX4      -0.0687
      4 CAO        31.1717   -4.7126   42.6189 C.ar        1 RX4      -0.0686
      5 CAQ        31.1741   -5.5304   41.4721 C.ar        1 RX4      -0.0602
      6 CBC        31.1025   -6.9380   41.5870 C.ar        1 RX4      -0.0393
      7 CAS        31.1269   -7.8171   40.3806 C.3         1 RX4       0.0205
      8 CBG        29.7287   -8.4072   39.9992 C.3         1 RX4       0.1158
      9 NAW        29.9070   -9.4547   39.0235 N.am        1 RX4      -0.2644
     10 CBB        29.8485  -10.7681   39.2235 C.2         1 RX4       0.2049
     11 OAI        29.6687  -11.2193   40.3516 O.2         1 RX4      -0.3944
     12 CBF        29.8284  -11.6864   38.0859 C.3         1 RX4       0.1421
     13 CAR        28.4680  -11.5544   37.3318 C.3         1 RX4       0.0406
     14 CAZ        28.2785  -12.4681   36.1910 C.2         1 RX4       0.0393
     15 OAK        29.2524  -13.2887   35.7327 O.co2       1 RX4      -0.5688
     16 OAG        27.0638  -12.5334   35.5993 O.co2       1 RX4      -0.5688
     17 NAU        30.0302  -13.0563   38.4935 N.am        1 RX4      -0.2643
     18 CAX        31.1803  -13.5878   38.8777 C.2         1 RX4       0.1752
     19 CAA        31.1826  -14.9426   39.3855 C.3         1 RX4       0.0258
     20 OAE        32.2269  -12.9566   38.8156 O.2         1 RX4      -0.3972
     21 P1         28.6285   -7.2652   39.4163 P.3         1 RX4       0.0153
     22 O4         28.1986   -7.6214   38.0869 O.co2       1 RX4      -0.6174
     23 O3         29.2283   -5.9695   39.2054 O.co2       1 RX4      -0.6174
     24 CAT        27.2471   -7.1222   40.3604 C.3         1 RX4       0.0350
     25 CBD        26.3510   -5.8399   40.2043 C.3         1 RX4       0.0618
     26 CAB        26.8123   -4.7045   41.1741 C.3         1 RX4      -0.0438
     27 CBA        26.1487   -5.4060   38.8161 C.2         1 RX4       0.1825
     28 OAH        26.3434   -4.2393   38.4946 O.2         1 RX4      -0.3966
     29 N          25.8252   -6.3061   37.8989 N.am        1 RX4      -0.2656
     30 CA         25.6253   -6.0968   36.4904 C.3         1 RX4       0.1278
     31 CB         26.7771   -6.8134   35.7310 C.3         1 RX4      -0.0244
     32 C          24.2902   -6.5552   36.1386 C.2         1 RX4       0.1989
     33 O          24.0960   -7.4833   35.3671 O.2         1 RX4      -0.3947
     34 NAD        23.2306   -5.9294   36.6094 N.am        1 RX4      -0.2990
     35 H1         30.9846   -8.5220   42.9993 H           1 RX4       0.0557
     36 H2         31.0051   -7.1153   44.9613 H           1 RX4       0.0599
     37 H3         31.1436   -4.6989   44.7332 H           1 RX4       0.0559
     38 H4         31.2171   -3.6983   42.5212 H           1 RX4       0.0599
     39 H5         31.2356   -5.0858   40.5545 H           1 RX4       0.0557
     40 H6         31.8188   -8.6368   40.5914 H           1 RX4       0.0465
     41 H7         31.5398   -7.2834   39.5177 H           1 RX4       0.0465
     42 H8         29.2986   -8.8310   40.9127 H           1 RX4       0.0788
     43 H9         30.0706   -9.1692   38.1110 H           1 RX4       0.1872
     44 H10        30.6233  -11.4101   37.3860 H           1 RX4       0.0819
     45 H11        28.3619  -10.5373   36.9418 H           1 RX4       0.0478
     46 H12        27.6490  -11.7283   38.0358 H           1 RX4       0.0478
     47 H13        29.2471  -13.6295   38.5338 H           1 RX4       0.1884
     48 H14        32.1882  -15.2698   39.6630 H           1 RX4       0.0467
     49 H15        30.7938  -15.6232   38.6279 H           1 RX4       0.0467
     50 H16        30.5439  -15.0031   40.2685 H           1 RX4       0.0467
     51 H17        27.5543   -7.2044   41.4073 H           1 RX4       0.0493
     52 H18        26.6282   -8.0048   40.1607 H           1 RX4       0.0493
     53 H19        25.3595   -6.1241   40.5649 H           1 RX4       0.0551
     54 H20        26.1158   -3.8641   41.1421 H           1 RX4       0.0257
     55 H21        27.8044   -4.3340   40.9097 H           1 RX4       0.0257
     56 H22        26.8451   -5.0640   42.2072 H           1 RX4       0.0257
     57 H23        25.7380   -7.2186   38.2051 H           1 RX4       0.1883
     58 H24        25.6819   -5.0355   36.2251 H           1 RX4       0.0797
     59 H25        26.6202   -6.7824   34.6522 H           1 RX4       0.0277
     60 H26        26.8547   -7.8579   36.0347 H           1 RX4       0.0277
     61 H27        27.7289   -6.3187   35.9429 H           1 RX4       0.0277
     62 H28        22.3391   -6.2373   36.3729 H           1 RX4       0.1815
     63 H29        23.3353   -5.1623   37.1997 H           1 RX4       0.1815
@<TRIPOS>BOND
     1     1     2  ar
     2     1     6  ar
     3     2     3  ar
     4     3     4  ar
     5     4     5  ar
     6     5     6  ar
     7     6     7   1
     8     7     8   1
     9     8     9   1
    10     8    21   1
    11     9    10  am
    12    10    11   2
    13    10    12   1
    14    12    13   1
    15    12    17   1
    16    13    14   1
    17    14    15  ar
    18    14    16  ar
    19    17    18  am
    20    18    19   1
    21    18    20   2
    22    21    22  ar
    23    21    23  ar
    24    21    24   1
    25    24    25   1
    26    25    26   1
    27    25    27   1
    28    27    28   2
    29    27    29  am
    30    29    30   1
    31    30    31   1
    32    30    32   1
    33    32    33   2
    34    32    34  am
    35     1    35   1
    36     2    36   1
    37     3    37   1
    38     4    38   1
    39     5    39   1
    40     7    40   1
    41     7    41   1
    42     8    42   1
    43     9    43   1
    44    12    44   1
    45    13    45   1
    46    13    46   1
    47    17    47   1
    48    19    48   1
    49    19    49   1
    50    19    50   1
    51    24    51   1
    52    24    52   1
    53    25    53   1
    54    26    54   1
    55    26    55   1
    56    26    56   1
    57    29    57   1
    58    30    58   1
    59    31    59   1
    60    31    60   1
    61    31    61   1
    62    34    62   1
    63    34    63   1
@<TRIPOS>SUBSTRUCTURE
     1  RX4      1

