@<TRIPOS>MOLECULE
2x97_ligand_073
    63    63
SMALL
GAST_HUCK
****
This file was generated by PARSER (from files_GN.cpp)

@<TRIPOS>ATOM
      1 CAP        28.6256   -4.9134   45.4613 C.ar        1 RX4      -0.0602
      2 CAN        27.5829   -4.1588   44.8916 C.ar        1 RX4      -0.0686
      3 CAM        27.8784   -3.0240   44.1152 C.ar        1 RX4      -0.0687
      4 CAO        29.2160   -2.6363   43.9190 C.ar        1 RX4      -0.0686
      5 CAQ        30.2589   -3.3927   44.4859 C.ar        1 RX4      -0.0602
      6 CBC        29.9789   -4.5443   45.2602 C.ar        1 RX4      -0.0393
      7 CAS        31.0869   -5.4070   45.7607 C.3         1 RX4       0.0205
      8 CBG        31.6613   -6.4292   44.7069 C.3         1 RX4       0.1158
      9 NAW        30.8465   -6.5079   43.5186 N.am        1 RX4      -0.2644
     10 CBB        31.0798   -5.9465   42.3325 C.2         1 RX4       0.2049
     11 OAI        32.0691   -5.2378   42.1771 O.2         1 RX4      -0.3944
     12 CBF        30.0559   -5.9403   41.2842 C.3         1 RX4       0.1421
     13 CAR        29.0904   -7.1716   41.2979 C.3         1 RX4       0.0406
     14 CAZ        29.7303   -8.5049   41.2050 C.2         1 RX4       0.0393
     15 OAK        28.9926   -9.6048   41.4668 O.co2       1 RX4      -0.5688
     16 OAG        31.0667   -8.6711   41.0682 O.co2       1 RX4      -0.5688
     17 NAU        30.6501   -5.7854   39.9772 N.am        1 RX4      -0.2643
     18 CAX        30.0480   -5.3699   38.8699 C.2         1 RX4       0.1752
     19 CAA        30.8208   -5.2522   37.6567 C.3         1 RX4       0.0258
     20 OAE        28.8639   -5.0615   38.8549 O.2         1 RX4      -0.3972
     21 P1         31.8755   -7.9807   45.2990 P.3         1 RX4       0.0153
     22 O4         32.7493   -7.8881   46.4413 O.co2       1 RX4      -0.6174
     23 O3         32.6330   -8.7424   44.3352 O.co2       1 RX4      -0.6174
     24 CAT        30.4743   -8.7716   45.7771 C.3         1 RX4       0.0350
     25 CBD        29.8215   -9.8047   44.7893 C.3         1 RX4       0.0618
     26 CAB        30.5352  -11.1879   44.8188 C.3         1 RX4      -0.0438
     27 CBA        28.3873  -10.0005   45.0347 C.2         1 RX4       0.1825
     28 OAH        27.7034  -10.3954   44.0994 O.2         1 RX4      -0.3966
     29 N          27.8502   -9.8117   46.2382 N.am        1 RX4      -0.2656
     30 CA         26.4744   -9.8507   46.6520 C.3         1 RX4       0.1278
     31 CB         25.3962   -9.5772   45.5676 C.3         1 RX4      -0.0244
     32 C          26.2197  -11.0834   47.3780 C.2         1 RX4       0.1989
     33 O          25.8443  -11.0591   48.5413 O.2         1 RX4      -0.3947
     34 NAD        26.3871  -12.2627   46.8207 N.am        1 RX4      -0.2990
     35 H1         28.3906   -5.7488   46.0035 H           1 RX4       0.0557
     36 H2         26.6118   -4.4461   45.0255 H           1 RX4       0.0599
     37 H3         27.1217   -2.4816   43.6932 H           1 RX4       0.0559
     38 H4         29.4294   -1.8151   43.3503 H           1 RX4       0.0599
     39 H5         31.2274   -3.1128   44.3128 H           1 RX4       0.0557
     40 H6         30.7429   -5.9094   46.6701 H           1 RX4       0.0465
     41 H7         31.9022   -4.7588   46.0956 H           1 RX4       0.0465
     42 H8         32.6636   -6.0786   44.4398 H           1 RX4       0.0788
     43 H9         29.9907   -6.9485   43.6276 H           1 RX4       0.1872
     44 H10        29.4471   -5.0459   41.4759 H           1 RX4       0.0819
     45 H11        28.3794   -7.0847   40.4738 H           1 RX4       0.0478
     46 H12        28.4966   -7.1471   42.2140 H           1 RX4       0.0478
     47 H13        31.6031   -5.9672   39.9049 H           1 RX4       0.1884
     48 H14        30.2086   -4.9063   36.8203 H           1 RX4       0.0467
     49 H15        31.2406   -6.2239   37.3948 H           1 RX4       0.0467
     50 H16        31.6348   -4.5402   37.8051 H           1 RX4       0.0467
     51 H17        29.7475   -7.9862   46.0056 H           1 RX4       0.0493
     52 H18        30.6850   -9.2871   46.7176 H           1 RX4       0.0493
     53 H19        29.9130   -9.4110   43.7574 H           1 RX4       0.0551
     54 H20        30.0707  -11.8801   44.1119 H           1 RX4       0.0257
     55 H21        30.4727  -11.6139   45.8219 H           1 RX4       0.0257
     56 H22        31.5880  -11.0979   44.5461 H           1 RX4       0.0257
     57 H23        28.4754   -9.6018   46.9496 H           1 RX4       0.1883
     58 H24        26.3807   -9.0103   47.3485 H           1 RX4       0.0797
     59 H25        24.4263   -9.4191   46.0469 H           1 RX4       0.0277
     60 H26        25.3005  -10.4138   44.8718 H           1 RX4       0.0277
     61 H27        25.6413   -8.6756   45.0002 H           1 RX4       0.0277
     62 H28        26.2066  -13.0706   47.3296 H           1 RX4       0.1815
     63 H29        26.6907  -12.3329   45.9010 H           1 RX4       0.1815
@<TRIPOS>BOND
     1     1     2  ar
     2     1     6  ar
     3     2     3  ar
     4     3     4  ar
     5     4     5  ar
     6     5     6  ar
     7     6     7   1
     8     7     8   1
     9     8     9   1
    10     8    21   1
    11     9    10  am
    12    10    11   2
    13    10    12   1
    14    12    13   1
    15    12    17   1
    16    13    14   1
    17    14    15  ar
    18    14    16  ar
    19    17    18  am
    20    18    19   1
    21    18    20   2
    22    21    22  ar
    23    21    23  ar
    24    21    24   1
    25    24    25   1
    26    25    26   1
    27    25    27   1
    28    27    28   2
    29    27    29  am
    30    29    30   1
    31    30    31   1
    32    30    32   1
    33    32    33   2
    34    32    34  am
    35     1    35   1
    36     2    36   1
    37     3    37   1
    38     4    38   1
    39     5    39   1
    40     7    40   1
    41     7    41   1
    42     8    42   1
    43     9    43   1
    44    12    44   1
    45    13    45   1
    46    13    46   1
    47    17    47   1
    48    19    48   1
    49    19    49   1
    50    19    50   1
    51    24    51   1
    52    24    52   1
    53    25    53   1
    54    26    54   1
    55    26    55   1
    56    26    56   1
    57    29    57   1
    58    30    58   1
    59    31    59   1
    60    31    60   1
    61    31    61   1
    62    34    62   1
    63    34    63   1
@<TRIPOS>SUBSTRUCTURE
     1  RX4      1

