@<TRIPOS>MOLECULE
2x97_ligand_041
    63    63
SMALL
GAST_HUCK
****
This file was generated by PARSER (from files_GN.cpp)

@<TRIPOS>ATOM
      1 CAP        27.2309   -5.0285   44.1390 C.ar        1 RX4      -0.0602
      2 CAN        27.6567   -4.6964   45.4328 C.ar        1 RX4      -0.0686
      3 CAM        27.8070   -3.3450   45.7992 C.ar        1 RX4      -0.0687
      4 CAO        27.5069   -2.3310   44.8690 C.ar        1 RX4      -0.0686
      5 CAQ        27.1522   -2.6670   43.5551 C.ar        1 RX4      -0.0602
      6 CBC        27.0233   -4.0232   43.1619 C.ar        1 RX4      -0.0393
      7 CAS        26.7069   -4.3641   41.7478 C.3         1 RX4       0.0205
      8 CBG        27.5195   -5.5444   41.1021 C.3         1 RX4       0.1158
      9 NAW        28.7838   -5.7018   41.7724 N.am        1 RX4      -0.2644
     10 CBB        29.4326   -6.8436   41.9995 C.2         1 RX4       0.2049
     11 OAI        29.1305   -7.8415   41.3559 O.2         1 RX4      -0.3944
     12 CBF        30.5498   -6.9258   42.9446 C.3         1 RX4       0.1421
     13 CAR        30.4053   -8.1369   43.9236 C.3         1 RX4       0.0406
     14 CAZ        31.5015   -8.2622   44.9080 C.2         1 RX4       0.0393
     15 OAK        31.2539   -8.1752   46.2315 O.co2       1 RX4      -0.5688
     16 OAG        32.7410   -8.6383   44.5185 O.co2       1 RX4      -0.5688
     17 NAU        30.6467   -5.7321   43.7417 N.am        1 RX4      -0.2643
     18 CAX        31.5804   -4.7935   43.7003 C.2         1 RX4       0.1752
     19 CAA        31.4938   -3.7023   44.6398 C.3         1 RX4       0.0258
     20 OAE        32.4774   -4.7954   42.8660 O.2         1 RX4      -0.3972
     21 P1         27.6674   -5.4563   39.4229 P.3         1 RX4       0.0153
     22 O4         27.0967   -4.2269   38.9134 O.co2       1 RX4      -0.6174
     23 O3         26.7581   -6.4198   38.8445 O.co2       1 RX4      -0.6174
     24 CAT        29.2100   -5.5684   38.7389 C.3         1 RX4       0.0350
     25 CBD        29.4215   -6.5466   37.5342 C.3         1 RX4       0.0618
     26 CAB        29.5005   -8.0374   37.9850 C.3         1 RX4      -0.0438
     27 CBA        28.4957   -6.2743   36.4330 C.2         1 RX4       0.1825
     28 OAH        27.6296   -7.0899   36.1358 O.2         1 RX4      -0.3966
     29 N          28.5787   -5.1111   35.8015 N.am        1 RX4      -0.2656
     30 CA         27.7276   -4.6176   34.7624 C.3         1 RX4       0.1278
     31 CB         26.9174   -3.4194   35.3259 C.3         1 RX4      -0.0244
     32 C          28.5415   -4.3338   33.5881 C.2         1 RX4       0.1989
     33 O          29.1308   -5.2517   33.0416 O.2         1 RX4      -0.3947
     34 NAD        28.6360   -3.1449   33.0263 N.am        1 RX4      -0.2990
     35 H1         27.1147   -6.0129   43.9033 H           1 RX4       0.0557
     36 H2         27.8558   -5.4376   46.1108 H           1 RX4       0.0599
     37 H3         28.1140   -3.1017   46.7401 H           1 RX4       0.0559
     38 H4         27.5596   -1.3523   45.1503 H           1 RX4       0.0599
     39 H5         26.9845   -1.9112   42.8784 H           1 RX4       0.0557
     40 H6         26.8497   -3.4630   41.1446 H           1 RX4       0.0465
     41 H7         25.6438   -4.6038   41.6997 H           1 RX4       0.0465
     42 H8         26.9320   -6.4389   41.3271 H           1 RX4       0.0788
     43 H9         29.1138   -4.9185   42.2321 H           1 RX4       0.1872
     44 H10        31.4495   -7.0840   42.3483 H           1 RX4       0.0819
     45 H11        30.3711   -9.0723   43.3562 H           1 RX4       0.0478
     46 H12        29.4541   -8.0456   44.4607 H           1 RX4       0.0478
     47 H13        29.9488   -5.6118   44.4051 H           1 RX4       0.1884
     48 H14        32.3061   -2.9831   44.5057 H           1 RX4       0.0467
     49 H15        31.5562   -4.0962   45.6560 H           1 RX4       0.0467
     50 H16        30.5455   -3.1712   44.5236 H           1 RX4       0.0467
     51 H17        29.9358   -5.8364   39.5075 H           1 RX4       0.0493
     52 H18        29.5031   -4.5639   38.4203 H           1 RX4       0.0493
     53 H19        30.4207   -6.3281   37.1390 H           1 RX4       0.0551
     54 H20        29.7616   -8.6678   37.1324 H           1 RX4       0.0257
     55 H21        28.5520   -8.3842   38.3963 H           1 RX4       0.0257
     56 H22        30.2749   -8.1590   38.7448 H           1 RX4       0.0257
     57 H23        29.2823   -4.5135   36.0941 H           1 RX4       0.1883
     58 H24        26.9985   -5.3723   34.4660 H           1 RX4       0.0797
     59 H25        26.2397   -3.0249   34.5623 H           1 RX4       0.0277
     60 H26        27.5831   -2.6151   35.6533 H           1 RX4       0.0277
     61 H27        26.3137   -3.7355   36.1815 H           1 RX4       0.0277
     62 H28        29.1528   -3.0328   32.2126 H           1 RX4       0.1815
     63 H29        28.1757   -2.3811   33.4078 H           1 RX4       0.1815
@<TRIPOS>BOND
     1     1     2  ar
     2     1     6  ar
     3     2     3  ar
     4     3     4  ar
     5     4     5  ar
     6     5     6  ar
     7     6     7   1
     8     7     8   1
     9     8     9   1
    10     8    21   1
    11     9    10  am
    12    10    11   2
    13    10    12   1
    14    12    13   1
    15    12    17   1
    16    13    14   1
    17    14    15  ar
    18    14    16  ar
    19    17    18  am
    20    18    19   1
    21    18    20   2
    22    21    22  ar
    23    21    23  ar
    24    21    24   1
    25    24    25   1
    26    25    26   1
    27    25    27   1
    28    27    28   2
    29    27    29  am
    30    29    30   1
    31    30    31   1
    32    30    32   1
    33    32    33   2
    34    32    34  am
    35     1    35   1
    36     2    36   1
    37     3    37   1
    38     4    38   1
    39     5    39   1
    40     7    40   1
    41     7    41   1
    42     8    42   1
    43     9    43   1
    44    12    44   1
    45    13    45   1
    46    13    46   1
    47    17    47   1
    48    19    48   1
    49    19    49   1
    50    19    50   1
    51    24    51   1
    52    24    52   1
    53    25    53   1
    54    26    54   1
    55    26    55   1
    56    26    56   1
    57    29    57   1
    58    30    58   1
    59    31    59   1
    60    31    60   1
    61    31    61   1
    62    34    62   1
    63    34    63   1
@<TRIPOS>SUBSTRUCTURE
     1  RX4      1

