@<TRIPOS>MOLECULE
2x97_ligand_044
    63    63
SMALL
GAST_HUCK
****
This file was generated by PARSER (from files_GN.cpp)

@<TRIPOS>ATOM
      1 CAP        30.3107  -10.0142   44.4775 C.ar        1 RX4      -0.0602
      2 CAN        31.0508  -10.5544   45.5426 C.ar        1 RX4      -0.0686
      3 CAM        30.3878  -11.0841   46.6687 C.ar        1 RX4      -0.0687
      4 CAO        28.9812  -11.0367   46.7368 C.ar        1 RX4      -0.0686
      5 CAQ        28.2406  -10.4720   45.6817 C.ar        1 RX4      -0.0602
      6 CBC        28.8960   -9.9522   44.5325 C.ar        1 RX4      -0.0393
      7 CAS        28.1175   -9.4393   43.3688 C.3         1 RX4       0.0205
      8 CBG        28.7605   -8.2110   42.6478 C.3         1 RX4       0.1158
      9 NAW        28.8321   -7.0931   43.5551 N.am        1 RX4      -0.2644
     10 CBB        29.9274   -6.5239   44.0449 C.2         1 RX4       0.2049
     11 OAI        31.0415   -6.9974   43.8534 O.2         1 RX4      -0.3944
     12 CBF        29.8034   -5.3037   44.8432 C.3         1 RX4       0.1421
     13 CAR        30.8443   -4.1981   44.4567 C.3         1 RX4       0.0406
     14 CAZ        31.2734   -4.2116   43.0436 C.2         1 RX4       0.0393
     15 OAK        32.5055   -4.6856   42.7422 O.co2       1 RX4      -0.5688
     16 OAG        30.3406   -4.2343   42.0622 O.co2       1 RX4      -0.5688
     17 NAU        29.9358   -5.6271   46.2372 N.am        1 RX4      -0.2643
     18 CAX        29.0512   -6.2753   46.9822 C.2         1 RX4       0.1752
     19 CAA        29.4194   -6.6480   48.3280 C.3         1 RX4       0.0258
     20 OAE        27.9504   -6.5961   46.5519 O.2         1 RX4      -0.3972
     21 P1         27.9255   -7.7206   41.2755 P.3         1 RX4       0.0153
     22 O4         28.6317   -6.5945   40.7186 O.co2       1 RX4      -0.6174
     23 O3         26.6013   -7.2515   41.6314 O.co2       1 RX4      -0.6174
     24 CAT        27.7919   -8.9346   40.1354 C.3         1 RX4       0.0350
     25 CBD        27.7034   -8.4814   38.6401 C.3         1 RX4       0.0618
     26 CAB        27.5244   -9.7155   37.7119 C.3         1 RX4      -0.0438
     27 CBA        26.6647   -7.4862   38.3607 C.2         1 RX4       0.1825
     28 OAH        25.6158   -7.5096   38.9900 O.2         1 RX4      -0.3966
     29 N          26.8643   -6.5757   37.4118 N.am        1 RX4      -0.2656
     30 CA         25.9870   -5.4922   37.0504 C.3         1 RX4       0.1278
     31 CB         26.7493   -4.5566   36.0791 C.3         1 RX4      -0.0244
     32 C          24.7145   -5.9069   36.4630 C.2         1 RX4       0.1989
     33 O          24.5307   -7.0521   36.0686 O.2         1 RX4      -0.3947
     34 NAD        23.7334   -5.0430   36.3016 N.am        1 RX4      -0.2990
     35 H1         30.8106   -9.6571   43.6553 H           1 RX4       0.0557
     36 H2         32.0716  -10.5808   45.4932 H           1 RX4       0.0599
     37 H3         30.9309  -11.5058   47.4225 H           1 RX4       0.0559
     38 H4         28.4985  -11.4235   47.5526 H           1 RX4       0.0599
     39 H5         27.2179  -10.4716   45.7377 H           1 RX4       0.0557
     40 H6         27.0956   -9.1795   43.6759 H           1 RX4       0.0465
     41 H7         28.0421  -10.2772   42.6667 H           1 RX4       0.0465
     42 H8         29.7669   -8.5038   42.3116 H           1 RX4       0.0788
     43 H9         27.9808   -6.7027   43.8282 H           1 RX4       0.1872
     44 H10        28.8107   -4.8625   44.6946 H           1 RX4       0.0819
     45 H11        31.7326   -4.2914   45.0877 H           1 RX4       0.0478
     46 H12        30.4129   -3.2121   44.6585 H           1 RX4       0.0478
     47 H13        30.7657   -5.3813   46.6709 H           1 RX4       0.1884
     48 H14        28.5980   -7.1515   48.8442 H           1 RX4       0.0467
     49 H15        29.6944   -5.7577   48.8977 H           1 RX4       0.0467
     50 H16        30.2736   -7.3281   48.2963 H           1 RX4       0.0467
     51 H17        26.9137   -9.5402   40.3881 H           1 RX4       0.0493
     52 H18        28.6759   -9.5769   40.2408 H           1 RX4       0.0493
     53 H19        28.6793   -8.0529   38.3879 H           1 RX4       0.0551
     54 H20        27.5402   -9.4073   36.6649 H           1 RX4       0.0257
     55 H21        26.5832  -10.2262   37.9195 H           1 RX4       0.0257
     56 H22        28.3445  -10.4215   37.8669 H           1 RX4       0.0257
     57 H23        27.7125   -6.6226   36.9402 H           1 RX4       0.1883
     58 H24        25.7714   -4.9265   37.9652 H           1 RX4       0.0797
     59 H25        26.1565   -3.6703   35.8423 H           1 RX4       0.0277
     60 H26        26.9810   -5.0824   35.1480 H           1 RX4       0.0277
     61 H27        27.6868   -4.2252   36.5308 H           1 RX4       0.0277
     62 H28        22.9006   -5.3291   35.8912 H           1 RX4       0.1815
     63 H29        23.8495   -4.1110   36.5566 H           1 RX4       0.1815
@<TRIPOS>BOND
     1     1     2  ar
     2     1     6  ar
     3     2     3  ar
     4     3     4  ar
     5     4     5  ar
     6     5     6  ar
     7     6     7   1
     8     7     8   1
     9     8     9   1
    10     8    21   1
    11     9    10  am
    12    10    11   2
    13    10    12   1
    14    12    13   1
    15    12    17   1
    16    13    14   1
    17    14    15  ar
    18    14    16  ar
    19    17    18  am
    20    18    19   1
    21    18    20   2
    22    21    22  ar
    23    21    23  ar
    24    21    24   1
    25    24    25   1
    26    25    26   1
    27    25    27   1
    28    27    28   2
    29    27    29  am
    30    29    30   1
    31    30    31   1
    32    30    32   1
    33    32    33   2
    34    32    34  am
    35     1    35   1
    36     2    36   1
    37     3    37   1
    38     4    38   1
    39     5    39   1
    40     7    40   1
    41     7    41   1
    42     8    42   1
    43     9    43   1
    44    12    44   1
    45    13    45   1
    46    13    46   1
    47    17    47   1
    48    19    48   1
    49    19    49   1
    50    19    50   1
    51    24    51   1
    52    24    52   1
    53    25    53   1
    54    26    54   1
    55    26    55   1
    56    26    56   1
    57    29    57   1
    58    30    58   1
    59    31    59   1
    60    31    60   1
    61    31    61   1
    62    34    62   1
    63    34    63   1
@<TRIPOS>SUBSTRUCTURE
     1  RX4      1

