@<TRIPOS>MOLECULE
2x97_ligand_074
    63    63
SMALL
GAST_HUCK
****
This file was generated by PARSER (from files_GN.cpp)

@<TRIPOS>ATOM
      1 CAP        25.9431    5.5209   44.7624 C.ar        1 RX4      -0.0602
      2 CAN        24.9021    5.9835   43.9396 C.ar        1 RX4      -0.0686
      3 CAM        23.6141    6.1670   44.4740 C.ar        1 RX4      -0.0687
      4 CAO        23.3764    5.9231   45.8387 C.ar        1 RX4      -0.0686
      5 CAQ        24.4278    5.4817   46.6664 C.ar        1 RX4      -0.0602
      6 CBC        25.7220    5.2629   46.1399 C.ar        1 RX4      -0.0393
      7 CAS        26.8280    4.7393   46.9954 C.3         1 RX4       0.0205
      8 CBG        26.7087    3.2456   47.4550 C.3         1 RX4       0.1158
      9 NAW        26.0998    2.4768   46.4110 N.am        1 RX4      -0.2644
     10 CBB        26.1941    1.1604   46.1925 C.2         1 RX4       0.2049
     11 OAI        26.7851    0.4684   47.0084 O.2         1 RX4      -0.3944
     12 CBF        25.7756    0.6275   44.8992 C.3         1 RX4       0.1421
     13 CAR        24.9518   -0.6970   45.0439 C.3         1 RX4       0.0406
     14 CAZ        25.7463   -1.9423   44.9290 C.2         1 RX4       0.0393
     15 OAK        26.4480   -2.4040   45.9854 O.co2       1 RX4      -0.5688
     16 OAG        25.9335   -2.5312   43.7328 O.co2       1 RX4      -0.5688
     17 NAU        26.8164    0.4448   43.9215 N.am        1 RX4      -0.2643
     18 CAX        28.0157    1.0144   43.8273 C.2         1 RX4       0.1752
     19 CAA        28.8649    0.6599   42.7287 C.3         1 RX4       0.0258
     20 OAE        28.4180    1.8420   44.6349 O.2         1 RX4      -0.3972
     21 P1         25.9237    2.9598   48.9078 P.3         1 RX4       0.0153
     22 O4         26.1920    1.5782   49.2223 O.co2       1 RX4      -0.6174
     23 O3         24.4895    3.0405   48.7649 O.co2       1 RX4      -0.6174
     24 CAT        26.5029    3.8818   50.1765 C.3         1 RX4       0.0350
     25 CBD        25.8087    3.7009   51.5918 C.3         1 RX4       0.0618
     26 CAB        26.8842    3.4161   52.6894 C.3         1 RX4      -0.0438
     27 CBA        24.9153    4.8140   51.9374 C.2         1 RX4       0.1825
     28 OAH        24.8057    5.2208   53.0985 O.2         1 RX4      -0.3966
     29 N          24.1341    5.3593   50.9940 N.am        1 RX4      -0.2656
     30 CA         23.3671    6.5634   51.0943 C.3         1 RX4       0.1278
     31 CB         22.3985    6.6730   49.8894 C.3         1 RX4      -0.0244
     32 C          22.6498    6.6560   52.3493 C.2         1 RX4       0.1989
     33 O          21.5332    6.1616   52.4949 O.2         1 RX4      -0.3947
     34 NAD        23.1999    7.2503   53.3965 N.am        1 RX4      -0.2990
     35 H1         26.8571    5.3522   44.3398 H           1 RX4       0.0557
     36 H2         25.0705    6.1759   42.9472 H           1 RX4       0.0599
     37 H3         22.8445    6.4921   43.8731 H           1 RX4       0.0559
     38 H4         22.4463    6.0708   46.2311 H           1 RX4       0.0599
     39 H5         24.2481    5.3237   47.6581 H           1 RX4       0.0557
     40 H6         26.9653    5.3995   47.8583 H           1 RX4       0.0465
     41 H7         27.7658    4.8097   46.4309 H           1 RX4       0.0465
     42 H8         27.7378    2.9098   47.6101 H           1 RX4       0.0788
     43 H9         25.6379    2.9815   45.7223 H           1 RX4       0.1872
     44 H10        25.0804    1.3416   44.4401 H           1 RX4       0.0819
     45 H11        24.1841   -0.7234   44.2596 H           1 RX4       0.0478
     46 H12        24.4107   -0.7314   46.0013 H           1 RX4       0.0478
     47 H13        26.5818   -0.1459   43.1909 H           1 RX4       0.1884
     48 H14        29.8236    1.1692   42.7783 H           1 RX4       0.0467
     49 H15        28.3838    0.9352   41.7952 H           1 RX4       0.0467
     50 H16        29.0523   -0.4098   42.7364 H           1 RX4       0.0467
     51 H17        26.4439    4.9376   49.8906 H           1 RX4       0.0493
     52 H18        27.5659    3.6421   50.2529 H           1 RX4       0.0493
     53 H19        25.1732    2.8095   51.5775 H           1 RX4       0.0551
     54 H20        26.4204    3.2861   53.6728 H           1 RX4       0.0257
     55 H21        27.6079    4.2363   52.7516 H           1 RX4       0.0257
     56 H22        27.4211    2.5001   52.4432 H           1 RX4       0.0257
     57 H23        24.1841    4.9509   50.1174 H           1 RX4       0.1883
     58 H24        24.0741    7.3991   51.0164 H           1 RX4       0.0797
     59 H25        21.8569    7.6223   49.9132 H           1 RX4       0.0277
     60 H26        21.6749    5.8552   49.8797 H           1 RX4       0.0277
     61 H27        22.9710    6.6351   48.9561 H           1 RX4       0.0277
     62 H28        22.7411    7.2921   54.2505 H           1 RX4       0.1815
     63 H29        24.0764    7.6685   53.2970 H           1 RX4       0.1815
@<TRIPOS>BOND
     1     1     2  ar
     2     1     6  ar
     3     2     3  ar
     4     3     4  ar
     5     4     5  ar
     6     5     6  ar
     7     6     7   1
     8     7     8   1
     9     8     9   1
    10     8    21   1
    11     9    10  am
    12    10    11   2
    13    10    12   1
    14    12    13   1
    15    12    17   1
    16    13    14   1
    17    14    15  ar
    18    14    16  ar
    19    17    18  am
    20    18    19   1
    21    18    20   2
    22    21    22  ar
    23    21    23  ar
    24    21    24   1
    25    24    25   1
    26    25    26   1
    27    25    27   1
    28    27    28   2
    29    27    29  am
    30    29    30   1
    31    30    31   1
    32    30    32   1
    33    32    33   2
    34    32    34  am
    35     1    35   1
    36     2    36   1
    37     3    37   1
    38     4    38   1
    39     5    39   1
    40     7    40   1
    41     7    41   1
    42     8    42   1
    43     9    43   1
    44    12    44   1
    45    13    45   1
    46    13    46   1
    47    17    47   1
    48    19    48   1
    49    19    49   1
    50    19    50   1
    51    24    51   1
    52    24    52   1
    53    25    53   1
    54    26    54   1
    55    26    55   1
    56    26    56   1
    57    29    57   1
    58    30    58   1
    59    31    59   1
    60    31    60   1
    61    31    61   1
    62    34    62   1
    63    34    63   1
@<TRIPOS>SUBSTRUCTURE
     1  RX4      1

