@<TRIPOS>MOLECULE
2x97_ligand_078
    63    63
SMALL
GAST_HUCK
****
This file was generated by PARSER (from files_GN.cpp)

@<TRIPOS>ATOM
      1 CAP        26.6853  -10.2736   45.0601 C.ar        1 RX4      -0.0602
      2 CAN        27.0658  -11.5277   45.5713 C.ar        1 RX4      -0.0686
      3 CAM        27.7369  -11.6103   46.8070 C.ar        1 RX4      -0.0687
      4 CAO        28.0150  -10.4399   47.5334 C.ar        1 RX4      -0.0686
      5 CAQ        27.6375   -9.1850   47.0232 C.ar        1 RX4      -0.0602
      6 CBC        26.9719   -9.0853   45.7759 C.ar        1 RX4      -0.0393
      7 CAS        26.5509   -7.7588   45.2490 C.3         1 RX4       0.0205
      8 CBG        27.6382   -7.0413   44.3891 C.3         1 RX4       0.1158
      9 NAW        28.8297   -6.8385   45.1668 N.am        1 RX4      -0.2644
     10 CBB        30.0711   -6.7929   44.6968 C.2         1 RX4       0.2049
     11 OAI        30.2948   -6.9076   43.4973 O.2         1 RX4      -0.3944
     12 CBF        31.1933   -6.6168   45.6178 C.3         1 RX4       0.1421
     13 CAR        32.3357   -5.6538   45.1406 C.3         1 RX4       0.0406
     14 CAZ        31.9543   -4.6605   44.1224 C.2         1 RX4       0.0393
     15 OAK        32.5221   -4.7015   42.8950 O.co2       1 RX4      -0.5688
     16 OAG        30.9915   -3.7400   44.3705 O.co2       1 RX4      -0.5688
     17 NAU        31.7057   -7.9009   46.0087 N.am        1 RX4      -0.2643
     18 CAX        32.2587   -8.8253   45.2292 C.2         1 RX4       0.1752
     19 CAA        32.6533  -10.0903   45.7978 C.3         1 RX4       0.0258
     20 OAE        32.4508   -8.6408   44.0356 O.2         1 RX4      -0.3972
     21 P1         27.1166   -5.5730   43.7508 P.3         1 RX4       0.0153
     22 O4         28.2340   -4.7320   43.4207 O.co2       1 RX4      -0.6174
     23 O3         26.4282   -4.8378   44.7782 O.co2       1 RX4      -0.6174
     24 CAT        26.0983   -5.7423   42.4307 C.3         1 RX4       0.0350
     25 CBD        26.7067   -5.7081   40.9887 C.3         1 RX4       0.0618
     26 CAB        27.1808   -4.2800   40.5850 C.3         1 RX4      -0.0438
     27 CBA        27.7040   -6.7528   40.7319 C.2         1 RX4       0.1825
     28 OAH        28.7780   -6.4672   40.2105 O.2         1 RX4      -0.3966
     29 N          27.4386   -8.0117   41.0645 N.am        1 RX4      -0.2656
     30 CA         28.2531   -9.1850   40.8734 C.3         1 RX4       0.1278
     31 CB         28.4277   -9.5363   39.3722 C.3         1 RX4      -0.0244
     32 C          29.5124   -9.1189   41.6019 C.2         1 RX4       0.1989
     33 O          30.5507   -8.7757   41.0531 O.2         1 RX4      -0.3947
     34 NAD        29.5795   -9.4309   42.8785 N.am        1 RX4      -0.2990
     35 H1         26.1898  -10.2329   44.1690 H           1 RX4       0.0557
     36 H2         26.8460  -12.3807   45.0523 H           1 RX4       0.0599
     37 H3         28.0130  -12.5247   47.1824 H           1 RX4       0.0559
     38 H4         28.4823  -10.5011   48.4392 H           1 RX4       0.0599
     39 H5         27.8403   -8.3490   47.5714 H           1 RX4       0.0557
     40 H6         26.2872   -7.1163   46.0903 H           1 RX4       0.0465
     41 H7         25.6351   -7.8929   44.6612 H           1 RX4       0.0465
     42 H8         27.8597   -7.7111   43.5544 H           1 RX4       0.0788
     43 H9         28.7115   -6.7431   46.1253 H           1 RX4       0.1872
     44 H10        30.7990   -6.1685   46.5358 H           1 RX4       0.0819
     45 H11        33.1657   -6.2382   44.7368 H           1 RX4       0.0478
     46 H12        32.7266   -5.1186   46.0126 H           1 RX4       0.0478
     47 H13        31.6170   -8.1279   46.9496 H           1 RX4       0.1884
     48 H14        33.0796  -10.7495   45.0374 H           1 RX4       0.0467
     49 H15        31.7821  -10.5814   46.2359 H           1 RX4       0.0467
     50 H16        33.4037   -9.9273   46.5716 H           1 RX4       0.0467
     51 H17        25.3344   -4.9643   42.4947 H           1 RX4       0.0493
     52 H18        25.5742   -6.6877   42.5506 H           1 RX4       0.0493
     53 H19        25.8745   -5.9258   40.3088 H           1 RX4       0.0551
     54 H20        27.4020   -4.2477   39.5162 H           1 RX4       0.0257
     55 H21        28.0808   -4.0004   41.1307 H           1 RX4       0.0257
     56 H22        26.4058   -3.5380   40.7930 H           1 RX4       0.0257
     57 H23        26.5820   -8.1691   41.4995 H           1 RX4       0.1883
     58 H24        27.6638  -10.0091   41.2936 H           1 RX4       0.0797
     59 H25        28.9917  -10.4675   39.2592 H           1 RX4       0.0277
     60 H26        28.9607   -8.7384   38.8485 H           1 RX4       0.0277
     61 H27        27.4483   -9.6706   38.8996 H           1 RX4       0.0277
     62 H28        30.4293   -9.4015   43.3439 H           1 RX4       0.1815
     63 H29        28.7860   -9.7385   43.3420 H           1 RX4       0.1815
@<TRIPOS>BOND
     1     1     2  ar
     2     1     6  ar
     3     2     3  ar
     4     3     4  ar
     5     4     5  ar
     6     5     6  ar
     7     6     7   1
     8     7     8   1
     9     8     9   1
    10     8    21   1
    11     9    10  am
    12    10    11   2
    13    10    12   1
    14    12    13   1
    15    12    17   1
    16    13    14   1
    17    14    15  ar
    18    14    16  ar
    19    17    18  am
    20    18    19   1
    21    18    20   2
    22    21    22  ar
    23    21    23  ar
    24    21    24   1
    25    24    25   1
    26    25    26   1
    27    25    27   1
    28    27    28   2
    29    27    29  am
    30    29    30   1
    31    30    31   1
    32    30    32   1
    33    32    33   2
    34    32    34  am
    35     1    35   1
    36     2    36   1
    37     3    37   1
    38     4    38   1
    39     5    39   1
    40     7    40   1
    41     7    41   1
    42     8    42   1
    43     9    43   1
    44    12    44   1
    45    13    45   1
    46    13    46   1
    47    17    47   1
    48    19    48   1
    49    19    49   1
    50    19    50   1
    51    24    51   1
    52    24    52   1
    53    25    53   1
    54    26    54   1
    55    26    55   1
    56    26    56   1
    57    29    57   1
    58    30    58   1
    59    31    59   1
    60    31    60   1
    61    31    61   1
    62    34    62   1
    63    34    63   1
@<TRIPOS>SUBSTRUCTURE
     1  RX4      1

