@<TRIPOS>MOLECULE
2x97_ligand_058
    63    63
SMALL
GAST_HUCK
****
This file was generated by PARSER (from files_GN.cpp)

@<TRIPOS>ATOM
      1 CAP        27.9186   -0.4896   43.8741 C.ar        1 RX4      -0.0602
      2 CAN        28.2823    0.5835   44.7104 C.ar        1 RX4      -0.0686
      3 CAM        27.6811    0.7263   45.9725 C.ar        1 RX4      -0.0687
      4 CAO        26.7078   -0.1990   46.3943 C.ar        1 RX4      -0.0686
      5 CAQ        26.3340   -1.2602   45.5503 C.ar        1 RX4      -0.0602
      6 CBC        26.9387   -1.4262   44.2810 C.ar        1 RX4      -0.0393
      7 CAS        26.5280   -2.5430   43.3772 C.3         1 RX4       0.0205
      8 CBG        26.7400   -3.9756   43.9595 C.3         1 RX4       0.1158
      9 NAW        28.1107   -4.1374   44.3801 N.am        1 RX4      -0.2644
     10 CBB        28.6084   -5.0590   45.2058 C.2         1 RX4       0.2049
     11 OAI        27.8371   -5.8422   45.7612 O.2         1 RX4      -0.3944
     12 CBF        30.0171   -5.1004   45.6093 C.3         1 RX4       0.1421
     13 CAR        31.0321   -4.2858   44.7327 C.3         1 RX4       0.0406
     14 CAZ        31.3927   -4.9134   43.4314 C.2         1 RX4       0.0393
     15 OAK        30.5970   -5.8417   42.8392 O.co2       1 RX4      -0.5688
     16 OAG        32.5646   -4.6005   42.8239 O.co2       1 RX4      -0.5688
     17 NAU        30.4677   -6.4693   45.7049 N.am        1 RX4      -0.2643
     18 CAX        31.5598   -6.9017   46.3265 C.2         1 RX4       0.1752
     19 CAA        31.9580   -8.2802   46.1589 C.3         1 RX4       0.0258
     20 OAE        32.2498   -6.1579   47.0063 O.2         1 RX4      -0.3972
     21 P1         26.2720   -5.1897   42.8922 P.3         1 RX4       0.0153
     22 O4         24.9991   -4.8624   42.3003 O.co2       1 RX4      -0.6174
     23 O3         26.0135   -6.3831   43.6620 O.co2       1 RX4      -0.6174
     24 CAT        27.3833   -5.4914   41.6679 C.3         1 RX4       0.0350
     25 CBD        27.3978   -6.9404   41.0392 C.3         1 RX4       0.0618
     26 CAB        26.3318   -7.0982   39.9172 C.3         1 RX4      -0.0438
     27 CBA        28.7065   -7.3891   40.5439 C.2         1 RX4       0.1825
     28 OAH        28.8831   -8.5934   40.4098 O.2         1 RX4      -0.3966
     29 N          29.6914   -6.5366   40.2714 N.am        1 RX4      -0.2656
     30 CA         31.0586   -6.7837   39.8854 C.3         1 RX4       0.1278
     31 CB         31.7054   -8.1375   40.3041 C.3         1 RX4      -0.0244
     32 C          31.1886   -6.5419   38.4568 C.2         1 RX4       0.1989
     33 O          31.7646   -5.5438   38.0512 O.2         1 RX4      -0.3947
     34 NAD        30.6579   -7.3533   37.5754 N.am        1 RX4      -0.2990
     35 H1         28.3732   -0.5732   42.9631 H           1 RX4       0.0557
     36 H2         28.9862    1.2580   44.3999 H           1 RX4       0.0599
     37 H3         27.9505    1.5016   46.5848 H           1 RX4       0.0559
     38 H4         26.2729   -0.0947   47.3130 H           1 RX4       0.0599
     39 H5         25.6097   -1.9103   45.8703 H           1 RX4       0.0557
     40 H6         27.0603   -2.4669   42.4227 H           1 RX4       0.0465
     41 H7         25.4669   -2.3973   43.1581 H           1 RX4       0.0465
     42 H8         26.0989   -4.0540   44.8436 H           1 RX4       0.0788
     43 H9         28.7378   -3.4857   44.0281 H           1 RX4       0.1872
     44 H10        30.0276   -4.6758   46.6148 H           1 RX4       0.0819
     45 H11        31.9576   -4.1896   45.2965 H           1 RX4       0.0478
     46 H12        30.6694   -3.2746   44.5484 H           1 RX4       0.0478
     47 H13        29.9678   -7.1303   45.1960 H           1 RX4       0.1884
     48 H14        32.8739   -8.5016   46.7134 H           1 RX4       0.0467
     49 H15        32.1422   -8.4922   45.1025 H           1 RX4       0.0467
     50 H16        31.1658   -8.9382   46.5208 H           1 RX4       0.0467
     51 H17        28.3629   -5.2903   42.1044 H           1 RX4       0.0493
     52 H18        27.2311   -4.7518   40.8715 H           1 RX4       0.0493
     53 H19        27.1307   -7.6514   41.8357 H           1 RX4       0.0551
     54 H20        26.2811   -8.1342   39.5724 H           1 RX4       0.0257
     55 H21        26.5743   -6.4609   39.0638 H           1 RX4       0.0257
     56 H22        25.3477   -6.8220   40.2879 H           1 RX4       0.0257
     57 H23        29.4539   -5.6004   40.2942 H           1 RX4       0.1883
     58 H24        31.6355   -6.0215   40.4209 H           1 RX4       0.0797
     59 H25        32.7873   -8.1103   40.0960 H           1 RX4       0.0277
     60 H26        31.2735   -8.9740   39.7527 H           1 RX4       0.0277
     61 H27        31.5744   -8.3103   41.3733 H           1 RX4       0.0277
     62 H28        30.7589   -7.1642   36.6354 H           1 RX4       0.1815
     63 H29        30.1943   -8.1565   37.8579 H           1 RX4       0.1815
@<TRIPOS>BOND
     1     1     2  ar
     2     1     6  ar
     3     2     3  ar
     4     3     4  ar
     5     4     5  ar
     6     5     6  ar
     7     6     7   1
     8     7     8   1
     9     8     9   1
    10     8    21   1
    11     9    10  am
    12    10    11   2
    13    10    12   1
    14    12    13   1
    15    12    17   1
    16    13    14   1
    17    14    15  ar
    18    14    16  ar
    19    17    18  am
    20    18    19   1
    21    18    20   2
    22    21    22  ar
    23    21    23  ar
    24    21    24   1
    25    24    25   1
    26    25    26   1
    27    25    27   1
    28    27    28   2
    29    27    29  am
    30    29    30   1
    31    30    31   1
    32    30    32   1
    33    32    33   2
    34    32    34  am
    35     1    35   1
    36     2    36   1
    37     3    37   1
    38     4    38   1
    39     5    39   1
    40     7    40   1
    41     7    41   1
    42     8    42   1
    43     9    43   1
    44    12    44   1
    45    13    45   1
    46    13    46   1
    47    17    47   1
    48    19    48   1
    49    19    49   1
    50    19    50   1
    51    24    51   1
    52    24    52   1
    53    25    53   1
    54    26    54   1
    55    26    55   1
    56    26    56   1
    57    29    57   1
    58    30    58   1
    59    31    59   1
    60    31    60   1
    61    31    61   1
    62    34    62   1
    63    34    63   1
@<TRIPOS>SUBSTRUCTURE
     1  RX4      1

