@<TRIPOS>MOLECULE
2x97_ligand_033
    63    63
SMALL
GAST_HUCK
****
This file was generated by PARSER (from files_GN.cpp)

@<TRIPOS>ATOM
      1 CAP        31.0390   -7.7780   41.4649 C.ar        1 RX4      -0.0602
      2 CAN        30.9793   -7.8499   42.8692 C.ar        1 RX4      -0.0686
      3 CAM        31.0108   -6.6725   43.6365 C.ar        1 RX4      -0.0687
      4 CAO        31.1059   -5.4232   43.0050 C.ar        1 RX4      -0.0686
      5 CAQ        31.1574   -5.3507   41.5998 C.ar        1 RX4      -0.0602
      6 CBC        31.1284   -6.5267   40.8079 C.ar        1 RX4      -0.0393
      7 CAS        31.2207   -6.4462   39.3131 C.3         1 RX4       0.0205
      8 CBG        29.8852   -6.7678   38.5478 C.3         1 RX4       0.1158
      9 NAW        29.9864   -8.0345   37.8630 N.am        1 RX4      -0.2644
     10 CBB        29.6423   -9.2265   38.3539 C.2         1 RX4       0.2049
     11 OAI        29.1508   -9.3041   39.4761 O.2         1 RX4      -0.3944
     12 CBF        29.7971  -10.4440   37.5544 C.3         1 RX4       0.1421
     13 CAR        28.8012  -10.4516   36.3490 C.3         1 RX4       0.0406
     14 CAZ        28.4222  -11.7850   35.8462 C.2         1 RX4       0.0393
     15 OAK        29.3631  -12.6989   35.5243 O.co2       1 RX4      -0.5688
     16 OAG        27.1170  -12.1274   35.7287 O.co2       1 RX4      -0.5688
     17 NAU        29.6115  -11.6142   38.3775 N.am        1 RX4      -0.2643
     18 CAX        30.5091  -12.5492   38.6726 C.2         1 RX4       0.1752
     19 CAA        30.0938  -13.6911   39.4528 C.3         1 RX4       0.0258
     20 OAE        31.6711  -12.4722   38.2949 O.2         1 RX4      -0.3972
     21 P1         29.3847   -5.5819   37.4745 P.3         1 RX4       0.0153
     22 O4         28.7505   -4.5873   38.3061 O.co2       1 RX4      -0.6174
     23 O3         28.2887   -6.0448   36.6555 O.co2       1 RX4      -0.6174
     24 CAT        30.5454   -4.8572   36.5003 C.3         1 RX4       0.0350
     25 CBD        30.3476   -3.3317   36.1393 C.3         1 RX4       0.0618
     26 CAB        31.7018   -2.5604   36.1223 C.3         1 RX4      -0.0438
     27 CBA        29.5892   -3.0452   34.9227 C.2         1 RX4       0.1825
     28 OAH        29.3378   -3.9402   34.1309 O.2         1 RX4      -0.3966
     29 N          29.1623   -1.8062   34.6884 N.am        1 RX4      -0.2656
     30 CA         28.3905   -1.3456   33.5647 C.3         1 RX4       0.1278
     31 CB         29.2920   -1.2350   32.3007 C.3         1 RX4      -0.0244
     32 C          27.1702   -2.1191   33.3406 C.2         1 RX4       0.1989
     33 O          26.5959   -2.0923   32.2596 O.2         1 RX4      -0.3947
     34 NAD        26.6000   -2.8136   34.3034 N.am        1 RX4      -0.2990
     35 H1         31.0268   -8.6446   40.9228 H           1 RX4       0.0557
     36 H2         30.9270   -8.7610   43.3290 H           1 RX4       0.0599
     37 H3         30.9629   -6.7254   44.6577 H           1 RX4       0.0559
     38 H4         31.1409   -4.5646   43.5588 H           1 RX4       0.0599
     39 H5         31.2101   -4.4296   41.1608 H           1 RX4       0.0557
     40 H6         32.0093   -7.1213   38.9787 H           1 RX4       0.0465
     41 H7         31.5809   -5.4436   39.0591 H           1 RX4       0.0465
     42 H8         29.0760   -6.8194   39.2860 H           1 RX4       0.0788
     43 H9         30.3777   -8.0184   36.9706 H           1 RX4       0.1872
     44 H10        30.8137  -10.4423   37.1409 H           1 RX4       0.0819
     45 H11        29.2603   -9.9142   35.5142 H           1 RX4       0.0478
     46 H12        27.8894   -9.9146   36.6183 H           1 RX4       0.0478
     47 H13        28.7240  -11.7411   38.7453 H           1 RX4       0.1884
     48 H14        30.9245  -14.3727   39.6429 H           1 RX4       0.0467
     49 H15        29.3125  -14.2387   38.9203 H           1 RX4       0.0467
     50 H16        29.6973  -13.3573   40.4129 H           1 RX4       0.0467
     51 H17        30.6644   -5.4631   35.5964 H           1 RX4       0.0493
     52 H18        31.4924   -4.9717   37.0341 H           1 RX4       0.0493
     53 H19        29.7954   -2.8592   36.9560 H           1 RX4       0.0551
     54 H20        31.5236   -1.4903   36.0109 H           1 RX4       0.0257
     55 H21        32.3369   -2.9089   35.3062 H           1 RX4       0.0257
     56 H22        32.2314   -2.7036   37.0679 H           1 RX4       0.0257
     57 H23        29.3754   -1.1374   35.3628 H           1 RX4       0.1883
     58 H24        28.0648   -0.3281   33.8040 H           1 RX4       0.0797
     59 H25        28.7670   -0.7222   31.4938 H           1 RX4       0.0277
     60 H26        29.5895   -2.2210   31.9507 H           1 RX4       0.0277
     61 H27        30.1951   -0.6592   32.5287 H           1 RX4       0.0277
     62 H28        25.8097   -3.3503   34.1230 H           1 RX4       0.1815
     63 H29        26.9860   -2.8261   35.1891 H           1 RX4       0.1815
@<TRIPOS>BOND
     1     1     2  ar
     2     1     6  ar
     3     2     3  ar
     4     3     4  ar
     5     4     5  ar
     6     5     6  ar
     7     6     7   1
     8     7     8   1
     9     8     9   1
    10     8    21   1
    11     9    10  am
    12    10    11   2
    13    10    12   1
    14    12    13   1
    15    12    17   1
    16    13    14   1
    17    14    15  ar
    18    14    16  ar
    19    17    18  am
    20    18    19   1
    21    18    20   2
    22    21    22  ar
    23    21    23  ar
    24    21    24   1
    25    24    25   1
    26    25    26   1
    27    25    27   1
    28    27    28   2
    29    27    29  am
    30    29    30   1
    31    30    31   1
    32    30    32   1
    33    32    33   2
    34    32    34  am
    35     1    35   1
    36     2    36   1
    37     3    37   1
    38     4    38   1
    39     5    39   1
    40     7    40   1
    41     7    41   1
    42     8    42   1
    43     9    43   1
    44    12    44   1
    45    13    45   1
    46    13    46   1
    47    17    47   1
    48    19    48   1
    49    19    49   1
    50    19    50   1
    51    24    51   1
    52    24    52   1
    53    25    53   1
    54    26    54   1
    55    26    55   1
    56    26    56   1
    57    29    57   1
    58    30    58   1
    59    31    59   1
    60    31    60   1
    61    31    61   1
    62    34    62   1
    63    34    63   1
@<TRIPOS>SUBSTRUCTURE
     1  RX4      1

