@<TRIPOS>MOLECULE
2x97_ligand_051
    63    63
SMALL
GAST_HUCK
****
This file was generated by PARSER (from files_GN.cpp)

@<TRIPOS>ATOM
      1 CAP        30.4430   -6.5203   38.1444 C.ar        1 RX4      -0.0602
      2 CAN        31.4429   -5.8799   38.9024 C.ar        1 RX4      -0.0686
      3 CAM        32.2066   -6.6199   39.8262 C.ar        1 RX4      -0.0687
      4 CAO        31.9995   -7.9996   39.9659 C.ar        1 RX4      -0.0686
      5 CAQ        31.0182   -8.6400   39.1930 C.ar        1 RX4      -0.0602
      6 CBC        30.2021   -7.9060   38.2929 C.ar        1 RX4      -0.0393
      7 CAS        29.1137   -8.5731   37.5211 C.3         1 RX4       0.0205
      8 CBG        27.7075   -8.6419   38.2034 C.3         1 RX4       0.1158
      9 NAW        27.1013   -7.3429   38.2495 N.am        1 RX4      -0.2644
     10 CBB        26.1806   -6.8621   37.4290 C.2         1 RX4       0.2049
     11 OAI        25.8314   -7.5198   36.4408 O.2         1 RX4      -0.3944
     12 CBF        25.6241   -5.5345   37.6660 C.3         1 RX4       0.1421
     13 CAR        24.0801   -5.4904   37.9267 C.3         1 RX4       0.0406
     14 CAZ        23.2561   -6.3168   37.0256 C.2         1 RX4       0.0393
     15 OAK        23.8098   -7.3170   36.2872 O.co2       1 RX4      -0.5688
     16 OAG        21.9968   -5.9173   36.6891 O.co2       1 RX4      -0.5688
     17 NAU        25.9762   -4.7228   36.5396 N.am        1 RX4      -0.2643
     18 CAX        26.9640   -3.8439   36.4461 C.2         1 RX4       0.1752
     19 CAA        27.2321   -3.2534   35.1462 C.3         1 RX4       0.0258
     20 OAE        27.7052   -3.5763   37.3878 O.2         1 RX4      -0.3972
     21 P1         27.6461   -9.3203   39.7388 P.3         1 RX4       0.0153
     22 O4         28.5936  -10.4052   39.7150 O.co2       1 RX4      -0.6174
     23 O3         26.3700   -9.9899   39.8323 O.co2       1 RX4      -0.6174
     24 CAT        27.8777   -8.2841   41.0422 C.3         1 RX4       0.0350
     25 CBD        28.9707   -8.6667   42.0998 C.3         1 RX4       0.0618
     26 CAB        29.5929   -7.4055   42.7745 C.3         1 RX4      -0.0438
     27 CBA        28.4984   -9.5995   43.1212 C.2         1 RX4       0.1825
     28 OAH        28.9354  -10.7439   43.1172 O.2         1 RX4      -0.3966
     29 N          27.6879   -9.1795   44.0917 N.am        1 RX4      -0.2656
     30 CA         27.2491   -9.8189   45.3174 C.3         1 RX4       0.1278
     31 CB         25.6949   -9.7842   45.3455 C.3         1 RX4      -0.0244
     32 C          27.8129  -11.1353   45.6181 C.2         1 RX4       0.1989
     33 O          27.1920  -12.1725   45.4290 O.2         1 RX4      -0.3947
     34 NAD        29.0821  -11.2404   45.9530 N.am        1 RX4      -0.2990
     35 H1         29.8944   -5.9686   37.4742 H           1 RX4       0.0557
     36 H2         31.6124   -4.8788   38.7844 H           1 RX4       0.0599
     37 H3         32.9006   -6.1519   40.4004 H           1 RX4       0.0559
     38 H4         32.5644   -8.5392   40.6183 H           1 RX4       0.0599
     39 H5         30.9016   -9.6537   39.3006 H           1 RX4       0.0557
     40 H6         29.4245   -9.5997   37.2775 H           1 RX4       0.0465
     41 H7         29.0086   -8.0616   36.5625 H           1 RX4       0.0465
     42 H8         27.1287   -9.3186   37.5676 H           1 RX4       0.0788
     43 H9         27.4053   -6.7454   38.9476 H           1 RX4       0.1872
     44 H10        26.0771   -5.1242   38.5776 H           1 RX4       0.0819
     45 H11        23.7449   -4.4658   37.8484 H           1 RX4       0.0478
     46 H12        23.8792   -5.8049   38.9526 H           1 RX4       0.0478
     47 H13        25.4621   -4.8734   35.7342 H           1 RX4       0.1884
     48 H14        28.0415   -2.5180   35.1827 H           1 RX4       0.0467
     49 H15        26.3385   -2.7491   34.7694 H           1 RX4       0.0467
     50 H16        27.5089   -4.0353   34.4323 H           1 RX4       0.0467
     51 H17        26.9193   -8.1471   41.5540 H           1 RX4       0.0493
     52 H18        28.1415   -7.3144   40.6255 H           1 RX4       0.0493
     53 H19        29.7985   -9.1331   41.5608 H           1 RX4       0.0551
     54 H20        30.3466   -7.6916   43.5120 H           1 RX4       0.0257
     55 H21        28.8312   -6.8104   43.2802 H           1 RX4       0.0257
     56 H22        30.0779   -6.7691   42.0356 H           1 RX4       0.0257
     57 H23        27.3673   -8.2676   43.9999 H           1 RX4       0.1883
     58 H24        27.5610   -9.1550   46.1352 H           1 RX4       0.0797
     59 H25        25.3176  -10.1388   46.3185 H           1 RX4       0.0277
     60 H26        25.2933  -10.4257   44.5516 H           1 RX4       0.0277
     61 H27        25.3351   -8.7562   45.1924 H           1 RX4       0.0277
     62 H28        29.4776  -12.1127   46.0977 H           1 RX4       0.1815
     63 H29        29.6349  -10.4451   45.9881 H           1 RX4       0.1815
@<TRIPOS>BOND
     1     1     2  ar
     2     1     6  ar
     3     2     3  ar
     4     3     4  ar
     5     4     5  ar
     6     5     6  ar
     7     6     7   1
     8     7     8   1
     9     8     9   1
    10     8    21   1
    11     9    10  am
    12    10    11   2
    13    10    12   1
    14    12    13   1
    15    12    17   1
    16    13    14   1
    17    14    15  ar
    18    14    16  ar
    19    17    18  am
    20    18    19   1
    21    18    20   2
    22    21    22  ar
    23    21    23  ar
    24    21    24   1
    25    24    25   1
    26    25    26   1
    27    25    27   1
    28    27    28   2
    29    27    29  am
    30    29    30   1
    31    30    31   1
    32    30    32   1
    33    32    33   2
    34    32    34  am
    35     1    35   1
    36     2    36   1
    37     3    37   1
    38     4    38   1
    39     5    39   1
    40     7    40   1
    41     7    41   1
    42     8    42   1
    43     9    43   1
    44    12    44   1
    45    13    45   1
    46    13    46   1
    47    17    47   1
    48    19    48   1
    49    19    49   1
    50    19    50   1
    51    24    51   1
    52    24    52   1
    53    25    53   1
    54    26    54   1
    55    26    55   1
    56    26    56   1
    57    29    57   1
    58    30    58   1
    59    31    59   1
    60    31    60   1
    61    31    61   1
    62    34    62   1
    63    34    63   1
@<TRIPOS>SUBSTRUCTURE
     1  RX4      1

