@<TRIPOS>MOLECULE
2x97_ligand_026
    63    63
SMALL
GAST_HUCK
****
This file was generated by PARSER (from files_GN.cpp)

@<TRIPOS>ATOM
      1 CAP        31.4076  -10.5515   35.4515 C.ar        1 RX4      -0.0602
      2 CAN        31.0198  -11.2844   34.3172 C.ar        1 RX4      -0.0686
      3 CAM        29.6752  -11.6511   34.1397 C.ar        1 RX4      -0.0687
      4 CAO        28.7272  -11.3247   35.1221 C.ar        1 RX4      -0.0686
      5 CAQ        29.1269  -10.6378   36.2797 C.ar        1 RX4      -0.0602
      6 CBC        30.4603  -10.1807   36.4383 C.ar        1 RX4      -0.0393
      7 CAS        30.8833   -9.4256   37.6607 C.3         1 RX4       0.0205
      8 CBG        29.9518   -8.2245   38.0882 C.3         1 RX4       0.1158
      9 NAW        30.4868   -6.9805   37.6061 N.am        1 RX4      -0.2644
     10 CBB        29.8798   -6.0584   36.8688 C.2         1 RX4       0.2049
     11 OAI        28.7463   -6.2763   36.4456 O.2         1 RX4      -0.3944
     12 CBF        30.5521   -4.8122   36.4867 C.3         1 RX4       0.1421
     13 CAR        31.5540   -4.2497   37.5519 C.3         1 RX4       0.0406
     14 CAZ        32.3302   -3.0695   37.1343 C.2         1 RX4       0.0393
     15 OAK        33.1719   -2.4854   38.0136 O.co2       1 RX4      -0.5688
     16 OAG        32.3388   -2.6191   35.8582 O.co2       1 RX4      -0.5688
     17 NAU        29.6026   -3.7583   36.2010 N.am        1 RX4      -0.2643
     18 CAX        28.9908   -3.5305   35.0424 C.2         1 RX4       0.1752
     19 CAA        28.0489   -2.4382   34.9509 C.3         1 RX4       0.0258
     20 OAE        29.1824   -4.2424   34.0656 O.2         1 RX4      -0.3972
     21 P1         29.6531   -8.0852   39.7354 P.3         1 RX4       0.0153
     22 O4         30.7686   -7.5034   40.4373 O.co2       1 RX4      -0.6174
     23 O3         29.5672   -9.4033   40.2975 O.co2       1 RX4      -0.6174
     24 CAT        28.1724   -7.3705   40.1140 C.3         1 RX4       0.0350
     25 CBD        28.1640   -5.8507   40.5118 C.3         1 RX4       0.0618
     26 CAB        27.5879   -4.8998   39.4130 C.3         1 RX4      -0.0438
     27 CBA        27.4227   -5.6459   41.7554 C.2         1 RX4       0.1825
     28 OAH        26.1971   -5.7039   41.7230 O.2         1 RX4      -0.3966
     29 N          28.0712   -5.5348   42.9087 N.am        1 RX4      -0.2656
     30 CA         27.5100   -5.3098   44.2102 C.3         1 RX4       0.1278
     31 CB         26.9399   -3.8713   44.3165 C.3         1 RX4      -0.0244
     32 C          26.6118   -6.3870   44.6219 C.2         1 RX4       0.1989
     33 O          27.0643   -7.4065   45.1180 O.2         1 RX4      -0.3947
     34 NAD        25.3132   -6.3655   44.4048 N.am        1 RX4      -0.2990
     35 H1         32.3988  -10.3129   35.5666 H           1 RX4       0.0557
     36 H2         31.7127  -11.5579   33.6163 H           1 RX4       0.0599
     37 H3         29.3842  -12.1643   33.3051 H           1 RX4       0.0559
     38 H4         27.7464  -11.5928   35.0072 H           1 RX4       0.0599
     39 H5         28.4305  -10.4671   37.0098 H           1 RX4       0.0557
     40 H6         31.8999   -9.0417   37.5228 H           1 RX4       0.0465
     41 H7         30.9585  -10.1798   38.4462 H           1 RX4       0.0465
     42 H8         28.9681   -8.3876   37.6583 H           1 RX4       0.0788
     43 H9         31.3984   -6.7883   37.8772 H           1 RX4       0.1872
     44 H10        31.1283   -5.0450   35.5875 H           1 RX4       0.0819
     45 H11        32.2837   -5.0122   37.8221 H           1 RX4       0.0478
     46 H12        31.0011   -3.9917   38.4556 H           1 RX4       0.0478
     47 H13        29.3991   -3.1450   36.9286 H           1 RX4       0.1884
     48 H14        27.6223   -2.3591   33.9468 H           1 RX4       0.0467
     49 H15        28.5449   -1.4950   35.1896 H           1 RX4       0.0467
     50 H16        27.2335   -2.6015   35.6570 H           1 RX4       0.0467
     51 H17        27.7551   -7.9573   40.9402 H           1 RX4       0.0493
     52 H18        27.4884   -7.5327   39.2786 H           1 RX4       0.0493
     53 H19        29.1951   -5.5201   40.6691 H           1 RX4       0.0551
     54 H20        27.5577   -3.8650   39.7656 H           1 RX4       0.0257
     55 H21        26.5739   -5.2008   39.1242 H           1 RX4       0.0257
     56 H22        28.2150   -4.9218   38.5323 H           1 RX4       0.0257
     57 H23        29.0397   -5.5838   42.8613 H           1 RX4       0.1883
     58 H24        28.3643   -5.3322   44.8955 H           1 RX4       0.0797
     59 H25        26.5607   -3.6869   45.3201 H           1 RX4       0.0277
     60 H26        26.1326   -3.7109   43.5998 H           1 RX4       0.0277
     61 H27        27.7250   -3.1433   44.1088 H           1 RX4       0.0277
     62 H28        24.7684   -7.1273   44.6470 H           1 RX4       0.1815
     63 H29        24.8945   -5.5906   43.9972 H           1 RX4       0.1815
@<TRIPOS>BOND
     1     1     2  ar
     2     1     6  ar
     3     2     3  ar
     4     3     4  ar
     5     4     5  ar
     6     5     6  ar
     7     6     7   1
     8     7     8   1
     9     8     9   1
    10     8    21   1
    11     9    10  am
    12    10    11   2
    13    10    12   1
    14    12    13   1
    15    12    17   1
    16    13    14   1
    17    14    15  ar
    18    14    16  ar
    19    17    18  am
    20    18    19   1
    21    18    20   2
    22    21    22  ar
    23    21    23  ar
    24    21    24   1
    25    24    25   1
    26    25    26   1
    27    25    27   1
    28    27    28   2
    29    27    29  am
    30    29    30   1
    31    30    31   1
    32    30    32   1
    33    32    33   2
    34    32    34  am
    35     1    35   1
    36     2    36   1
    37     3    37   1
    38     4    38   1
    39     5    39   1
    40     7    40   1
    41     7    41   1
    42     8    42   1
    43     9    43   1
    44    12    44   1
    45    13    45   1
    46    13    46   1
    47    17    47   1
    48    19    48   1
    49    19    49   1
    50    19    50   1
    51    24    51   1
    52    24    52   1
    53    25    53   1
    54    26    54   1
    55    26    55   1
    56    26    56   1
    57    29    57   1
    58    30    58   1
    59    31    59   1
    60    31    60   1
    61    31    61   1
    62    34    62   1
    63    34    63   1
@<TRIPOS>SUBSTRUCTURE
     1  RX4      1

