@<TRIPOS>MOLECULE
2x97_ligand_028
    63    63
SMALL
GAST_HUCK
****
This file was generated by PARSER (from files_GN.cpp)

@<TRIPOS>ATOM
      1 CAP        29.2718   -9.5587   39.2500 C.ar        1 RX4      -0.0602
      2 CAN        30.0869  -10.2750   38.3565 C.ar        1 RX4      -0.0686
      3 CAM        29.6655  -10.4623   37.0221 C.ar        1 RX4      -0.0687
      4 CAO        28.4487   -9.9180   36.5907 C.ar        1 RX4      -0.0686
      5 CAQ        27.6335   -9.2010   37.4904 C.ar        1 RX4      -0.0602
      6 CBC        28.0463   -8.9831   38.8229 C.ar        1 RX4      -0.0393
      7 CAS        27.1998   -8.1969   39.7720 C.3         1 RX4       0.0205
      8 CBG        26.6876   -6.8128   39.2378 C.3         1 RX4       0.1158
      9 NAW        27.6937   -6.1747   38.4273 N.am        1 RX4      -0.2644
     10 CBB        27.6010   -4.9920   37.8229 C.2         1 RX4       0.2049
     11 OAI        26.6433   -4.2501   38.0626 O.2         1 RX4      -0.3944
     12 CBF        28.5268   -4.5849   36.7708 C.3         1 RX4       0.1421
     13 CAR        28.4499   -5.5933   35.5780 C.3         1 RX4       0.0406
     14 CAZ        29.3718   -5.2598   34.4645 C.2         1 RX4       0.0393
     15 OAK        30.7095   -5.1291   34.6809 O.co2       1 RX4      -0.5688
     16 OAG        28.9147   -5.2820   33.1835 O.co2       1 RX4      -0.5688
     17 NAU        29.8574   -4.2795   37.2311 N.am        1 RX4      -0.2643
     18 CAX        30.8154   -5.1073   37.5989 C.2         1 RX4       0.1752
     19 CAA        32.0508   -4.5618   38.1172 C.3         1 RX4       0.0258
     20 OAE        30.6953   -6.3294   37.5478 O.2         1 RX4      -0.3972
     21 P1         26.0514   -5.8068   40.4493 P.3         1 RX4       0.0153
     22 O4         24.6285   -6.0446   40.3768 O.co2       1 RX4      -0.6174
     23 O3         26.1060   -4.3940   40.1610 O.co2       1 RX4      -0.6174
     24 CAT        26.4021   -6.0541   42.0614 C.3         1 RX4       0.0350
     25 CBD        27.8227   -5.6794   42.6273 C.3         1 RX4       0.0618
     26 CAB        28.9683   -5.4257   41.6099 C.3         1 RX4      -0.0438
     27 CBA        27.7372   -4.6217   43.6504 C.2         1 RX4       0.1825
     28 OAH        27.4438   -4.9591   44.7904 O.2         1 RX4      -0.3966
     29 N          27.9237   -3.3321   43.3587 N.am        1 RX4      -0.2656
     30 CA         27.8682   -2.2430   44.3012 C.3         1 RX4       0.1278
     31 CB         28.2911   -0.9175   43.6147 C.3         1 RX4      -0.0244
     32 C          26.5514   -2.1281   44.9100 C.2         1 RX4       0.1989
     33 O          26.3687   -2.4564   46.0716 O.2         1 RX4      -0.3947
     34 NAD        25.5113   -1.6751   44.2452 N.am        1 RX4      -0.2990
     35 H1         29.6009   -9.4370   40.2091 H           1 RX4       0.0557
     36 H2         30.9752  -10.6751   38.6769 H           1 RX4       0.0599
     37 H3         30.2646  -10.9923   36.3722 H           1 RX4       0.0559
     38 H4         28.1481  -10.0629   35.6268 H           1 RX4       0.0599
     39 H5         26.7491   -8.8155   37.1567 H           1 RX4       0.0557
     40 H6         27.7607   -8.0421   40.6895 H           1 RX4       0.0465
     41 H7         26.3298   -8.8135   40.0361 H           1 RX4       0.0465
     42 H8         25.8664   -7.0560   38.5541 H           1 RX4       0.0788
     43 H9         28.4547   -6.7188   38.1929 H           1 RX4       0.1872
     44 H10        28.1549   -3.6287   36.3644 H           1 RX4       0.0819
     45 H11        27.4357   -5.6053   35.1459 H           1 RX4       0.0478
     46 H12        28.6560   -6.6117   35.9255 H           1 RX4       0.0478
     47 H13        30.0290   -3.3381   37.3494 H           1 RX4       0.1884
     48 H14        32.7575   -5.3443   38.4072 H           1 RX4       0.0467
     49 H15        31.8292   -3.9615   39.0041 H           1 RX4       0.0467
     50 H16        32.5368   -3.9227   37.3683 H           1 RX4       0.0467
     51 H17        26.2031   -7.1057   42.2641 H           1 RX4       0.0493
     52 H18        25.6351   -5.5172   42.6260 H           1 RX4       0.0493
     53 H19        28.1617   -6.5807   43.1630 H           1 RX4       0.0551
     54 H20        29.8991   -5.2128   42.1341 H           1 RX4       0.0257
     55 H21        28.7333   -4.5823   40.9555 H           1 RX4       0.0257
     56 H22        29.1376   -6.3060   40.9910 H           1 RX4       0.0257
     57 H23        28.1908   -3.1112   42.4559 H           1 RX4       0.1883
     58 H24        28.6158   -2.4434   45.0802 H           1 RX4       0.0797
     59 H25        28.3291   -0.1116   44.3431 H           1 RX4       0.0277
     60 H26        27.5974   -0.6545   42.8267 H           1 RX4       0.0277
     61 H27        29.2833   -1.0326   43.1849 H           1 RX4       0.0277
     62 H28        24.6421   -1.6175   44.6719 H           1 RX4       0.1815
     63 H29        25.6141   -1.3930   43.3228 H           1 RX4       0.1815
@<TRIPOS>BOND
     1     1     2  ar
     2     1     6  ar
     3     2     3  ar
     4     3     4  ar
     5     4     5  ar
     6     5     6  ar
     7     6     7   1
     8     7     8   1
     9     8     9   1
    10     8    21   1
    11     9    10  am
    12    10    11   2
    13    10    12   1
    14    12    13   1
    15    12    17   1
    16    13    14   1
    17    14    15  ar
    18    14    16  ar
    19    17    18  am
    20    18    19   1
    21    18    20   2
    22    21    22  ar
    23    21    23  ar
    24    21    24   1
    25    24    25   1
    26    25    26   1
    27    25    27   1
    28    27    28   2
    29    27    29  am
    30    29    30   1
    31    30    31   1
    32    30    32   1
    33    32    33   2
    34    32    34  am
    35     1    35   1
    36     2    36   1
    37     3    37   1
    38     4    38   1
    39     5    39   1
    40     7    40   1
    41     7    41   1
    42     8    42   1
    43     9    43   1
    44    12    44   1
    45    13    45   1
    46    13    46   1
    47    17    47   1
    48    19    48   1
    49    19    49   1
    50    19    50   1
    51    24    51   1
    52    24    52   1
    53    25    53   1
    54    26    54   1
    55    26    55   1
    56    26    56   1
    57    29    57   1
    58    30    58   1
    59    31    59   1
    60    31    60   1
    61    31    61   1
    62    34    62   1
    63    34    63   1
@<TRIPOS>SUBSTRUCTURE
     1  RX4      1

