@<TRIPOS>MOLECULE
2x97_ligand_045
    63    63
SMALL
GAST_HUCK
****
This file was generated by PARSER (from files_GN.cpp)

@<TRIPOS>ATOM
      1 CAP        28.6737   -6.3493   38.9518 C.ar        1 RX4      -0.0602
      2 CAN        28.3849   -7.2026   37.8733 C.ar        1 RX4      -0.0686
      3 CAM        29.3844   -8.0364   37.3490 C.ar        1 RX4      -0.0687
      4 CAO        30.6827   -8.0030   37.8869 C.ar        1 RX4      -0.0686
      5 CAQ        30.9768   -7.1425   38.9594 C.ar        1 RX4      -0.0602
      6 CBC        29.9712   -6.3138   39.5193 C.ar        1 RX4      -0.0393
      7 CAS        30.2881   -5.4072   40.6600 C.3         1 RX4       0.0205
      8 CBG        30.7060   -6.1614   41.9593 C.3         1 RX4       0.1158
      9 NAW        29.6810   -7.0986   42.3535 N.am        1 RX4      -0.2644
     10 CBB        29.8723   -8.3515   42.7733 C.2         1 RX4       0.2049
     11 OAI        31.0015   -8.7828   42.9578 O.2         1 RX4      -0.3944
     12 CBF        28.7436   -9.2559   42.9832 C.3         1 RX4       0.1421
     13 CAR        27.9105   -9.5414   41.6971 C.3         1 RX4       0.0406
     14 CAZ        28.6266   -9.5251   40.4063 C.2         1 RX4       0.0393
     15 OAK        29.9619   -9.3130   40.3025 O.co2       1 RX4      -0.5688
     16 OAG        27.9263   -9.6722   39.2567 O.co2       1 RX4      -0.5688
     17 NAU        27.8798   -8.7144   43.9938 N.am        1 RX4      -0.2643
     18 CAX        27.6040   -9.2331   45.1834 C.2         1 RX4       0.1752
     19 CAA        26.6634   -8.5686   46.0538 C.3         1 RX4       0.0258
     20 OAE        28.1417  -10.2666   45.5776 O.2         1 RX4      -0.3972
     21 P1         31.1132   -5.1470   43.2210 P.3         1 RX4       0.0153
     22 O4         32.3449   -4.4978   42.8410 O.co2       1 RX4      -0.6174
     23 O3         31.5408   -5.9410   44.3478 O.co2       1 RX4      -0.6174
     24 CAT        30.0953   -3.9322   43.7440 C.3         1 RX4       0.0350
     25 CBD        28.7202   -4.3225   44.3869 C.3         1 RX4       0.0618
     26 CAB        28.8098   -5.3897   45.5146 C.3         1 RX4      -0.0438
     27 CBA        28.0495   -3.1006   44.8566 C.2         1 RX4       0.1825
     28 OAH        27.6232   -3.0229   46.0141 O.2         1 RX4      -0.3966
     29 N          27.9284   -2.0464   44.0534 N.am        1 RX4      -0.2656
     30 CA         27.4150   -0.7471   44.4145 C.3         1 RX4       0.1278
     31 CB         27.4596    0.1780   43.1718 C.3         1 RX4      -0.0244
     32 C          26.1129   -0.8568   45.0710 C.2         1 RX4       0.1989
     33 O          26.0503   -1.3253   46.2012 O.2         1 RX4      -0.3947
     34 NAD        24.9717   -0.6217   44.4708 N.am        1 RX4      -0.2990
     35 H1         27.9313   -5.7502   39.3219 H           1 RX4       0.0557
     36 H2         27.4435   -7.2203   37.4743 H           1 RX4       0.0599
     37 H3         29.1694   -8.6655   36.5693 H           1 RX4       0.0559
     38 H4         31.4141   -8.6025   37.4977 H           1 RX4       0.0599
     39 H5         31.9297   -7.1219   39.3282 H           1 RX4       0.0557
     40 H6         29.4322   -4.7651   40.8903 H           1 RX4       0.0465
     41 H7         31.1023   -4.7509   40.3333 H           1 RX4       0.0465
     42 H8         31.6201   -6.7126   41.7172 H           1 RX4       0.0788
     43 H9         28.7642   -6.8045   42.2516 H           1 RX4       0.1872
     44 H10        29.1294  -10.2313   43.3127 H           1 RX4       0.0819
     45 H11        27.0907   -8.8172   41.6269 H           1 RX4       0.0478
     46 H12        27.4654  -10.5316   41.7988 H           1 RX4       0.0478
     47 H13        27.4375   -7.8739   43.7806 H           1 RX4       0.1884
     48 H14        26.4932   -9.1334   46.9733 H           1 RX4       0.0467
     49 H15        25.7079   -8.4438   45.5448 H           1 RX4       0.0467
     50 H16        27.0452   -7.5812   46.3323 H           1 RX4       0.0467
     51 H17        29.9069   -3.2871   42.8825 H           1 RX4       0.0493
     52 H18        30.6568   -3.3404   44.4733 H           1 RX4       0.0493
     53 H19        28.0853   -4.7446   43.6024 H           1 RX4       0.0551
     54 H20        27.8213   -5.5819   45.9365 H           1 RX4       0.0257
     55 H21        29.4815   -5.0554   46.3093 H           1 RX4       0.0257
     56 H22        29.1884   -6.3373   45.1277 H           1 RX4       0.0257
     57 H23        28.2936   -2.1394   43.1494 H           1 RX4       0.1883
     58 H24        28.1098   -0.2903   45.1291 H           1 RX4       0.0797
     59 H25        27.0742    1.1713   43.4126 H           1 RX4       0.0277
     60 H26        26.8687   -0.2351   42.3480 H           1 RX4       0.0277
     61 H27        28.4913    0.2915   42.8129 H           1 RX4       0.0277
     62 H28        24.1380   -0.8436   44.9156 H           1 RX4       0.1815
     63 H29        24.9633   -0.3417   43.5501 H           1 RX4       0.1815
@<TRIPOS>BOND
     1     1     2  ar
     2     1     6  ar
     3     2     3  ar
     4     3     4  ar
     5     4     5  ar
     6     5     6  ar
     7     6     7   1
     8     7     8   1
     9     8     9   1
    10     8    21   1
    11     9    10  am
    12    10    11   2
    13    10    12   1
    14    12    13   1
    15    12    17   1
    16    13    14   1
    17    14    15  ar
    18    14    16  ar
    19    17    18  am
    20    18    19   1
    21    18    20   2
    22    21    22  ar
    23    21    23  ar
    24    21    24   1
    25    24    25   1
    26    25    26   1
    27    25    27   1
    28    27    28   2
    29    27    29  am
    30    29    30   1
    31    30    31   1
    32    30    32   1
    33    32    33   2
    34    32    34  am
    35     1    35   1
    36     2    36   1
    37     3    37   1
    38     4    38   1
    39     5    39   1
    40     7    40   1
    41     7    41   1
    42     8    42   1
    43     9    43   1
    44    12    44   1
    45    13    45   1
    46    13    46   1
    47    17    47   1
    48    19    48   1
    49    19    49   1
    50    19    50   1
    51    24    51   1
    52    24    52   1
    53    25    53   1
    54    26    54   1
    55    26    55   1
    56    26    56   1
    57    29    57   1
    58    30    58   1
    59    31    59   1
    60    31    60   1
    61    31    61   1
    62    34    62   1
    63    34    63   1
@<TRIPOS>SUBSTRUCTURE
     1  RX4      1

