@<TRIPOS>MOLECULE
2x97_ligand_082
    63    63
SMALL
GAST_HUCK
****
This file was generated by PARSER (from files_GN.cpp)

@<TRIPOS>ATOM
      1 CAP        26.5331   -5.6235   42.4789 C.ar        1 RX4      -0.0602
      2 CAN        26.6991   -4.2276   42.4709 C.ar        1 RX4      -0.0686
      3 CAM        27.0212   -3.5568   43.6634 C.ar        1 RX4      -0.0687
      4 CAO        27.1623   -4.2834   44.8607 C.ar        1 RX4      -0.0686
      5 CAQ        27.0079   -5.6834   44.8648 C.ar        1 RX4      -0.0602
      6 CBC        26.6997   -6.3775   43.6717 C.ar        1 RX4      -0.0393
      7 CAS        26.5560   -7.8639   43.6621 C.3         1 RX4       0.0205
      8 CBG        27.6114   -8.6365   44.5164 C.3         1 RX4       0.1158
      9 NAW        28.9258   -8.1774   44.1514 N.am        1 RX4      -0.2644
     10 CBB        29.6649   -7.2946   44.8204 C.2         1 RX4       0.2049
     11 OAI        29.2624   -6.8421   45.8867 O.2         1 RX4      -0.3944
     12 CBF        30.9787   -6.9103   44.3079 C.3         1 RX4       0.1421
     13 CAR        32.0976   -7.9042   44.7295 C.3         1 RX4       0.0406
     14 CAZ        31.9970   -8.4230   46.1086 C.2         1 RX4       0.0393
     15 OAK        32.2973   -7.6232   47.1584 O.co2       1 RX4      -0.5688
     16 OAG        31.2276   -9.5113   46.3448 O.co2       1 RX4      -0.5688
     17 NAU        31.2709   -5.5665   44.7266 N.am        1 RX4      -0.2643
     18 CAX        31.9660   -4.6547   44.0618 C.2         1 RX4       0.1752
     19 CAA        32.0901   -3.3431   44.6512 C.3         1 RX4       0.0258
     20 OAE        32.4894   -4.8819   42.9784 O.2         1 RX4      -0.3972
     21 P1         27.5375  -10.3110   44.3768 P.3         1 RX4       0.0153
     22 O4         28.5012  -10.7960   43.4223 O.co2       1 RX4      -0.6174
     23 O3         26.2742  -10.7192   43.8148 O.co2       1 RX4      -0.6174
     24 CAT        27.7070  -11.1814   45.7960 C.3         1 RX4       0.0350
     25 CBD        26.9220  -10.7197   47.0778 C.3         1 RX4       0.0618
     26 CAB        25.4461  -10.2683   46.8611 C.3         1 RX4      -0.0438
     27 CBA        26.9447  -11.7637   48.1021 C.2         1 RX4       0.1825
     28 OAH        27.1250  -11.4471   49.2728 O.2         1 RX4      -0.3966
     29 N          26.6795  -13.0305   47.7869 N.am        1 RX4      -0.2656
     30 CA         26.6408  -14.1644   48.6765 C.3         1 RX4       0.1278
     31 CB         25.6218  -15.2053   48.1481 C.3         1 RX4      -0.0244
     32 C          27.9348  -14.8105   48.8339 C.2         1 RX4       0.1989
     33 O          28.2015  -15.4011   49.8708 O.2         1 RX4      -0.3947
     34 NAD        28.7817  -14.9193   47.8350 N.am        1 RX4      -0.2990
     35 H1         26.2917   -6.0939   41.6006 H           1 RX4       0.0557
     36 H2         26.5862   -3.7029   41.6039 H           1 RX4       0.0599
     37 H3         27.1507   -2.5416   43.6601 H           1 RX4       0.0559
     38 H4         27.3988   -3.7881   45.7263 H           1 RX4       0.0599
     39 H5         27.1380   -6.1945   45.7428 H           1 RX4       0.0557
     40 H6         26.6125   -8.2264   42.6303 H           1 RX4       0.0465
     41 H7         25.5538   -8.0963   44.0381 H           1 RX4       0.0465
     42 H8         27.3814   -8.4140   45.5600 H           1 RX4       0.0788
     43 H9         29.2798   -8.4982   43.3010 H           1 RX4       0.1872
     44 H10        30.9399   -6.9241   43.2131 H           1 RX4       0.0819
     45 H11        33.0689   -7.4214   44.6305 H           1 RX4       0.0478
     46 H12        32.0872   -8.7551   44.0492 H           1 RX4       0.0478
     47 H13        30.9120   -5.2929   45.5895 H           1 RX4       0.1884
     48 H14        32.7243   -2.6965   44.0437 H           1 RX4       0.0467
     49 H15        32.5366   -3.4268   45.6425 H           1 RX4       0.0467
     50 H16        31.1030   -2.8857   44.7341 H           1 RX4       0.0467
     51 H17        28.7752  -11.1837   46.0397 H           1 RX4       0.0493
     52 H18        27.4320  -12.2148   45.5556 H           1 RX4       0.0493
     53 H19        27.4455   -9.8390   47.4621 H           1 RX4       0.0551
     54 H20        24.9909   -9.9759   47.8198 H           1 RX4       0.0257
     55 H21        24.8549  -11.0774   46.4238 H           1 RX4       0.0257
     56 H22        25.3941   -9.3989   46.1979 H           1 RX4       0.0257
     57 H23        26.4750  -13.2084   46.8519 H           1 RX4       0.1883
     58 H24        26.2828  -13.8277   49.6555 H           1 RX4       0.0797
     59 H25        25.5477  -16.0561   48.8327 H           1 RX4       0.0277
     60 H26        25.9288  -15.5751   47.1666 H           1 RX4       0.0277
     61 H27        24.6317  -14.7503   48.0587 H           1 RX4       0.0277
     62 H28        29.6095  -15.4144   47.9496 H           1 RX4       0.1815
     63 H29        28.5855  -14.5077   46.9766 H           1 RX4       0.1815
@<TRIPOS>BOND
     1     1     2  ar
     2     1     6  ar
     3     2     3  ar
     4     3     4  ar
     5     4     5  ar
     6     5     6  ar
     7     6     7   1
     8     7     8   1
     9     8     9   1
    10     8    21   1
    11     9    10  am
    12    10    11   2
    13    10    12   1
    14    12    13   1
    15    12    17   1
    16    13    14   1
    17    14    15  ar
    18    14    16  ar
    19    17    18  am
    20    18    19   1
    21    18    20   2
    22    21    22  ar
    23    21    23  ar
    24    21    24   1
    25    24    25   1
    26    25    26   1
    27    25    27   1
    28    27    28   2
    29    27    29  am
    30    29    30   1
    31    30    31   1
    32    30    32   1
    33    32    33   2
    34    32    34  am
    35     1    35   1
    36     2    36   1
    37     3    37   1
    38     4    38   1
    39     5    39   1
    40     7    40   1
    41     7    41   1
    42     8    42   1
    43     9    43   1
    44    12    44   1
    45    13    45   1
    46    13    46   1
    47    17    47   1
    48    19    48   1
    49    19    49   1
    50    19    50   1
    51    24    51   1
    52    24    52   1
    53    25    53   1
    54    26    54   1
    55    26    55   1
    56    26    56   1
    57    29    57   1
    58    30    58   1
    59    31    59   1
    60    31    60   1
    61    31    61   1
    62    34    62   1
    63    34    63   1
@<TRIPOS>SUBSTRUCTURE
     1  RX4      1

