@<TRIPOS>MOLECULE
2x97_ligand_040
    63    63
SMALL
GAST_HUCK
****
This file was generated by PARSER (from files_GN.cpp)

@<TRIPOS>ATOM
      1 CAP        30.8198   -5.4573   40.8353 C.ar        1 RX4      -0.0602
      2 CAN        31.7667   -5.7681   39.8419 C.ar        1 RX4      -0.0686
      3 CAM        32.1800   -7.0974   39.6541 C.ar        1 RX4      -0.0687
      4 CAO        31.5801   -8.1259   40.4002 C.ar        1 RX4      -0.0686
      5 CAQ        30.5996   -7.8239   41.3629 C.ar        1 RX4      -0.0602
      6 CBC        30.2141   -6.4836   41.5997 C.ar        1 RX4      -0.0393
      7 CAS        29.1888   -6.1325   42.6267 C.3         1 RX4       0.0205
      8 CBG        27.7322   -6.0201   42.0694 C.3         1 RX4       0.1158
      9 NAW        27.6626   -5.3067   40.8154 N.am        1 RX4      -0.2644
     10 CBB        27.1372   -5.7463   39.6731 C.2         1 RX4       0.2049
     11 OAI        26.7115   -6.8896   39.5927 O.2         1 RX4      -0.3944
     12 CBF        27.2314   -4.9348   38.4522 C.3         1 RX4       0.1421
     13 CAR        26.1468   -5.0892   37.3192 C.3         1 RX4       0.0406
     14 CAZ        25.2349   -6.2507   37.3893 C.2         1 RX4       0.0393
     15 OAK        25.2865   -7.2433   36.4711 O.co2       1 RX4      -0.5688
     16 OAG        24.2373   -6.2628   38.3024 O.co2       1 RX4      -0.5688
     17 NAU        28.5547   -4.9800   37.8930 N.am        1 RX4      -0.2643
     18 CAX        29.2703   -6.0495   37.5716 C.2         1 RX4       0.1752
     19 CAA        30.5235   -5.8544   36.8804 C.3         1 RX4       0.0258
     20 OAE        28.8988   -7.1878   37.8474 O.2         1 RX4      -0.3972
     21 P1         26.6771   -5.2742   43.1307 P.3         1 RX4       0.0153
     22 O4         26.5889   -6.0661   44.3318 O.co2       1 RX4      -0.6174
     23 O3         25.3592   -5.4022   42.5645 O.co2       1 RX4      -0.6174
     24 CAT        26.9592   -3.6409   43.4306 C.3         1 RX4       0.0350
     25 CBD        26.9546   -3.1817   44.9332 C.3         1 RX4       0.0618
     26 CAB        28.2416   -3.6643   45.6802 C.3         1 RX4      -0.0438
     27 CBA        26.7287   -1.7369   45.0533 C.2         1 RX4       0.1825
     28 OAH        27.6264   -0.9947   45.4366 O.2         1 RX4      -0.3966
     29 N          25.5230   -1.2420   44.7828 N.am        1 RX4      -0.2656
     30 CA         25.0605    0.1153   44.9112 C.3         1 RX4       0.1278
     31 CB         24.4480    0.3143   46.3229 C.3         1 RX4      -0.0244
     32 C          26.0262    1.1359   44.5038 C.2         1 RX4       0.1989
     33 O          26.4390    1.9900   45.2766 O.2         1 RX4      -0.3947
     34 NAD        26.5068    1.1552   43.2822 N.am        1 RX4      -0.2990
     35 H1         30.5677   -4.4813   40.9881 H           1 RX4       0.0557
     36 H2         32.1483   -5.0249   39.2547 H           1 RX4       0.0599
     37 H3         32.9027   -7.3153   38.9646 H           1 RX4       0.0559
     38 H4         31.8596   -9.0953   40.2356 H           1 RX4       0.0599
     39 H5         30.1720   -8.5859   41.8934 H           1 RX4       0.0557
     40 H6         29.4925   -5.1985   43.1055 H           1 RX4       0.0465
     41 H7         29.2006   -6.8901   43.4175 H           1 RX4       0.0465
     42 H8         27.3776   -7.0461   41.9520 H           1 RX4       0.0788
     43 H9         28.0337   -4.4064   40.8064 H           1 RX4       0.1872
     44 H10        27.1479   -3.8976   38.7760 H           1 RX4       0.0819
     45 H11        26.6348   -5.1119   36.3409 H           1 RX4       0.0478
     46 H12        25.5098   -4.2014   37.3086 H           1 RX4       0.0478
     47 H13        28.9596   -4.1217   37.6670 H           1 RX4       0.1884
     48 H14        31.1452   -6.7528   36.9406 H           1 RX4       0.0467
     49 H15        31.0829   -5.0244   37.3222 H           1 RX4       0.0467
     50 H16        30.3178   -5.6430   35.8223 H           1 RX4       0.0467
     51 H17        26.1955   -3.0834   42.8775 H           1 RX4       0.0493
     52 H18        27.9136   -3.3554   42.9804 H           1 RX4       0.0493
     53 H19        26.1079   -3.6565   45.4353 H           1 RX4       0.0551
     54 H20        28.2291   -3.3261   46.7198 H           1 RX4       0.0257
     55 H21        29.1410   -3.2642   45.2014 H           1 RX4       0.0257
     56 H22        28.3099   -4.7513   45.6889 H           1 RX4       0.0257
     57 H23        24.8341   -1.8959   44.5780 H           1 RX4       0.1883
     58 H24        24.2218    0.2051   44.2156 H           1 RX4       0.0797
     59 H25        24.0345    1.3192   46.4235 H           1 RX4       0.0277
     60 H26        25.2072    0.1689   47.0941 H           1 RX4       0.0277
     61 H27        23.6404   -0.4008   46.4846 H           1 RX4       0.0277
     62 H28        27.1579    1.8274   43.0254 H           1 RX4       0.1815
     63 H29        26.2171    0.4929   42.6359 H           1 RX4       0.1815
@<TRIPOS>BOND
     1     1     2  ar
     2     1     6  ar
     3     2     3  ar
     4     3     4  ar
     5     4     5  ar
     6     5     6  ar
     7     6     7   1
     8     7     8   1
     9     8     9   1
    10     8    21   1
    11     9    10  am
    12    10    11   2
    13    10    12   1
    14    12    13   1
    15    12    17   1
    16    13    14   1
    17    14    15  ar
    18    14    16  ar
    19    17    18  am
    20    18    19   1
    21    18    20   2
    22    21    22  ar
    23    21    23  ar
    24    21    24   1
    25    24    25   1
    26    25    26   1
    27    25    27   1
    28    27    28   2
    29    27    29  am
    30    29    30   1
    31    30    31   1
    32    30    32   1
    33    32    33   2
    34    32    34  am
    35     1    35   1
    36     2    36   1
    37     3    37   1
    38     4    38   1
    39     5    39   1
    40     7    40   1
    41     7    41   1
    42     8    42   1
    43     9    43   1
    44    12    44   1
    45    13    45   1
    46    13    46   1
    47    17    47   1
    48    19    48   1
    49    19    49   1
    50    19    50   1
    51    24    51   1
    52    24    52   1
    53    25    53   1
    54    26    54   1
    55    26    55   1
    56    26    56   1
    57    29    57   1
    58    30    58   1
    59    31    59   1
    60    31    60   1
    61    31    61   1
    62    34    62   1
    63    34    63   1
@<TRIPOS>SUBSTRUCTURE
     1  RX4      1

