@<TRIPOS>MOLECULE
2x97_ligand_039
    63    63
SMALL
GAST_HUCK
****
This file was generated by PARSER (from files_GN.cpp)

@<TRIPOS>ATOM
      1 CAP        31.2821   -7.1269   40.5049 C.ar        1 RX4      -0.0602
      2 CAN        32.0476   -7.2281   39.3332 C.ar        1 RX4      -0.0686
      3 CAM        31.8050   -8.2717   38.4219 C.ar        1 RX4      -0.0687
      4 CAO        30.8304   -9.2409   38.7048 C.ar        1 RX4      -0.0686
      5 CAQ        30.0566   -9.1370   39.8816 C.ar        1 RX4      -0.0602
      6 CBC        30.2662   -8.0715   40.7871 C.ar        1 RX4      -0.0393
      7 CAS        29.3312   -7.8710   41.9336 C.3         1 RX4       0.0205
      8 CBG        27.8999   -7.3469   41.5290 C.3         1 RX4       0.1158
      9 NAW        27.8188   -6.9979   40.1275 N.am        1 RX4      -0.2644
     10 CBB        27.2535   -7.7076   39.1571 C.2         1 RX4       0.2049
     11 OAI        26.6384   -8.7348   39.4244 O.2         1 RX4      -0.3944
     12 CBF        27.3024   -7.2655   37.7589 C.3         1 RX4       0.1421
     13 CAR        25.9147   -6.7667   37.2384 C.3         1 RX4       0.0406
     14 CAZ        25.2743   -5.7660   38.1227 C.2         1 RX4       0.0393
     15 OAK        25.8882   -4.5840   38.3881 O.co2       1 RX4      -0.5688
     16 OAG        24.1004   -6.0655   38.7415 O.co2       1 RX4      -0.5688
     17 NAU        27.8614   -8.2386   36.8508 N.am        1 RX4      -0.2643
     18 CAX        27.6412   -9.5430   36.7797 C.2         1 RX4       0.1752
     19 CAA        28.2753  -10.3034   35.7226 C.3         1 RX4       0.0258
     20 OAE        26.9275  -10.1333   37.5911 O.2         1 RX4      -0.3972
     21 P1         27.3641   -6.0140   42.3917 P.3         1 RX4       0.0153
     22 O4         27.0250   -6.4245   43.7340 O.co2       1 RX4      -0.6174
     23 O3         26.1031   -5.5957   41.8252 O.co2       1 RX4      -0.6174
     24 CAT        28.4341   -4.7245   42.3646 C.3         1 RX4       0.0350
     25 CBD        29.0350   -4.2649   43.7421 C.3         1 RX4       0.0618
     26 CAB        30.4944   -3.7526   43.5995 C.3         1 RX4      -0.0438
     27 CBA        28.2296   -3.2347   44.4070 C.2         1 RX4       0.1825
     28 OAH        27.8145   -3.4552   45.5391 O.2         1 RX4      -0.3966
     29 N          28.0657   -2.0484   43.8353 N.am        1 RX4      -0.2656
     30 CA         27.4833   -0.8583   44.3991 C.3         1 RX4       0.1278
     31 CB         27.4585    0.2418   43.3017 C.3         1 RX4      -0.0244
     32 C          26.1925   -1.1040   45.0343 C.2         1 RX4       0.1989
     33 O          26.1527   -1.6132   46.1499 O.2         1 RX4      -0.3947
     34 NAD        25.0377   -0.8066   44.4865 N.am        1 RX4      -0.2990
     35 H1         31.4472   -6.3395   41.1395 H           1 RX4       0.0557
     36 H2         32.7658   -6.5293   39.1282 H           1 RX4       0.0599
     37 H3         32.3445   -8.3350   37.5549 H           1 RX4       0.0559
     38 H4         30.6615  -10.0079   38.0514 H           1 RX4       0.0599
     39 H5         29.3245   -9.8271   40.0496 H           1 RX4       0.0557
     40 H6         29.8020   -7.2088   42.6643 H           1 RX4       0.0465
     41 H7         29.2342   -8.8292   42.4519 H           1 RX4       0.0465
     42 H8         27.1900   -8.1504   41.7572 H           1 RX4       0.0788
     43 H9         28.2719   -6.1867   39.8497 H           1 RX4       0.1872
     44 H10        27.9746   -6.4019   37.6870 H           1 RX4       0.0819
     45 H11        25.2418   -7.6234   37.1190 H           1 RX4       0.0478
     46 H12        26.0403   -6.3052   36.2483 H           1 RX4       0.0478
     47 H13        28.4175   -7.8757   36.1352 H           1 RX4       0.1884
     48 H14        28.1533  -11.3822   35.8786 H           1 RX4       0.0467
     49 H15        29.3473  -10.0771   35.6876 H           1 RX4       0.0467
     50 H16        27.8199  -10.0444   34.7606 H           1 RX4       0.0467
     51 H17        27.9362   -3.8904   41.8688 H           1 RX4       0.0493
     52 H18        29.2480   -5.0080   41.6955 H           1 RX4       0.0493
     53 H19        29.1226   -5.1378   44.4001 H           1 RX4       0.0551
     54 H20        30.8817   -3.4044   44.5617 H           1 RX4       0.0257
     55 H21        30.5436   -2.9335   42.8813 H           1 RX4       0.0257
     56 H22        31.1448   -4.5579   43.2512 H           1 RX4       0.0257
     57 H23        28.4535   -1.9492   42.9494 H           1 RX4       0.1883
     58 H24        28.1651   -0.4849   45.1674 H           1 RX4       0.0797
     59 H25        27.0367    1.1683   43.6977 H           1 RX4       0.0277
     60 H26        26.8641   -0.0743   42.4416 H           1 RX4       0.0277
     61 H27        28.4722    0.4502   42.9503 H           1 RX4       0.0277
     62 H28        24.2130   -1.0241   44.9479 H           1 RX4       0.1815
     63 H29        25.0009   -0.4011   43.6111 H           1 RX4       0.1815
@<TRIPOS>BOND
     1     1     2  ar
     2     1     6  ar
     3     2     3  ar
     4     3     4  ar
     5     4     5  ar
     6     5     6  ar
     7     6     7   1
     8     7     8   1
     9     8     9   1
    10     8    21   1
    11     9    10  am
    12    10    11   2
    13    10    12   1
    14    12    13   1
    15    12    17   1
    16    13    14   1
    17    14    15  ar
    18    14    16  ar
    19    17    18  am
    20    18    19   1
    21    18    20   2
    22    21    22  ar
    23    21    23  ar
    24    21    24   1
    25    24    25   1
    26    25    26   1
    27    25    27   1
    28    27    28   2
    29    27    29  am
    30    29    30   1
    31    30    31   1
    32    30    32   1
    33    32    33   2
    34    32    34  am
    35     1    35   1
    36     2    36   1
    37     3    37   1
    38     4    38   1
    39     5    39   1
    40     7    40   1
    41     7    41   1
    42     8    42   1
    43     9    43   1
    44    12    44   1
    45    13    45   1
    46    13    46   1
    47    17    47   1
    48    19    48   1
    49    19    49   1
    50    19    50   1
    51    24    51   1
    52    24    52   1
    53    25    53   1
    54    26    54   1
    55    26    55   1
    56    26    56   1
    57    29    57   1
    58    30    58   1
    59    31    59   1
    60    31    60   1
    61    31    61   1
    62    34    62   1
    63    34    63   1
@<TRIPOS>SUBSTRUCTURE
     1  RX4      1

