@<TRIPOS>MOLECULE
2x97_ligand_060
    63    63
SMALL
GAST_HUCK
****
This file was generated by PARSER (from files_GN.cpp)

@<TRIPOS>ATOM
      1 CAP        30.9261   -7.3231   42.8684 C.ar        1 RX4      -0.0602
      2 CAN        30.8281   -6.8152   44.1758 C.ar        1 RX4      -0.0686
      3 CAM        30.8443   -5.4247   44.3940 C.ar        1 RX4      -0.0687
      4 CAO        30.9625   -4.5476   43.2994 C.ar        1 RX4      -0.0686
      5 CAQ        31.0755   -5.0602   41.9936 C.ar        1 RX4      -0.0602
      6 CBC        31.0545   -6.4544   41.7600 C.ar        1 RX4      -0.0393
      7 CAS        31.1852   -7.0084   40.3774 C.3         1 RX4       0.0205
      8 CBG        29.8480   -7.5469   39.7807 C.3         1 RX4       0.1158
      9 NAW        30.1209   -8.5863   38.8188 N.am        1 RX4      -0.2644
     10 CBB        29.2329   -9.4265   38.2882 C.2         1 RX4       0.2049
     11 OAI        28.0440   -9.3013   38.5528 O.2         1 RX4      -0.3944
     12 CBF        29.6337  -10.5417   37.4347 C.3         1 RX4       0.1421
     13 CAR        28.7928  -10.6023   36.1095 C.3         1 RX4       0.0406
     14 CAZ        28.3275  -11.9508   35.7093 C.2         1 RX4       0.0393
     15 OAK        29.2064  -12.9146   35.3575 O.co2       1 RX4      -0.5688
     16 OAG        27.0070  -12.2408   35.6801 O.co2       1 RX4      -0.5688
     17 NAU        29.5101  -11.7300   38.2373 N.am        1 RX4      -0.2643
     18 CAX        30.4582  -12.6088   38.5472 C.2         1 RX4       0.1752
     19 CAA        30.1091  -13.7555   39.3470 C.3         1 RX4       0.0258
     20 OAE        31.6159  -12.4664   38.1761 O.2         1 RX4      -0.3972
     21 P1         28.8554   -6.3429   39.1466 P.3         1 RX4       0.0153
     22 O4         28.9127   -5.1053   39.8638 O.co2       1 RX4      -0.6174
     23 O3         27.5084   -6.7999   39.3314 O.co2       1 RX4      -0.6174
     24 CAT        29.0520   -6.0980   37.5017 C.3         1 RX4       0.0350
     25 CBD        28.1468   -5.0337   36.8006 C.3         1 RX4       0.0618
     26 CAB        28.0059   -5.3548   35.2827 C.3         1 RX4      -0.0438
     27 CBA        26.8163   -4.8555   37.4023 C.2         1 RX4       0.1825
     28 OAH        26.6115   -3.8515   38.0732 O.2         1 RX4      -0.3966
     29 N          25.8728   -5.7730   37.2660 N.am        1 RX4      -0.2656
     30 CA         24.5351   -5.7562   37.8121 C.3         1 RX4       0.1278
     31 CB         24.5823   -5.8788   39.3631 C.3         1 RX4      -0.0244
     32 C          23.7100   -4.6589   37.3103 C.2         1 RX4       0.1989
     33 O          22.8276   -4.1497   37.9814 O.2         1 RX4      -0.3947
     34 NAD        23.8495   -4.2042   36.0831 N.am        1 RX4      -0.2990
     35 H1         30.9185   -8.3410   42.7333 H           1 RX4       0.0557
     36 H2         30.7470   -7.4529   44.9708 H           1 RX4       0.0599
     37 H3         30.7702   -5.0531   45.3397 H           1 RX4       0.0559
     38 H4         30.9682   -3.5395   43.4543 H           1 RX4       0.0599
     39 H5         31.1708   -4.4049   41.2136 H           1 RX4       0.0557
     40 H6         31.9218   -7.8245   40.4329 H           1 RX4       0.0465
     41 H7         31.6261   -6.2620   39.7026 H           1 RX4       0.0465
     42 H8         29.3052   -8.0242   40.6067 H           1 RX4       0.0788
     43 H9         31.0525   -8.7203   38.5662 H           1 RX4       0.1872
     44 H10        30.6815  -10.4018   37.1384 H           1 RX4       0.0819
     45 H11        29.3936  -10.2129   35.2868 H           1 RX4       0.0478
     46 H12        27.9120   -9.9623   36.1793 H           1 RX4       0.0478
     47 H13        28.6277  -11.9076   38.6006 H           1 RX4       0.1884
     48 H14        30.9682  -14.4133   39.5142 H           1 RX4       0.0467
     49 H15        29.3309  -14.3359   38.8432 H           1 RX4       0.0467
     50 H16        29.7294  -13.4329   40.3204 H           1 RX4       0.0467
     51 H17        28.9048   -7.0604   37.0078 H           1 RX4       0.0493
     52 H18        30.0931   -5.8116   37.3387 H           1 RX4       0.0493
     53 H19        28.6802   -4.0780   36.8587 H           1 RX4       0.0551
     54 H20        27.4250   -4.5825   34.7746 H           1 RX4       0.0257
     55 H21        27.5082   -6.3181   35.1276 H           1 RX4       0.0257
     56 H22        28.9920   -5.4050   34.8131 H           1 RX4       0.0257
     57 H23        26.1033   -6.5529   36.7362 H           1 RX4       0.1883
     58 H24        24.0590   -6.6707   37.4466 H           1 RX4       0.0797
     59 H25        23.5740   -5.9023   39.7804 H           1 RX4       0.0277
     60 H26        25.1244   -5.0427   39.7985 H           1 RX4       0.0277
     61 H27        25.0860   -6.8000   39.6462 H           1 RX4       0.0277
     62 H28        23.2955   -3.4749   35.7678 H           1 RX4       0.1815
     63 H29        24.5452   -4.5523   35.5158 H           1 RX4       0.1815
@<TRIPOS>BOND
     1     1     2  ar
     2     1     6  ar
     3     2     3  ar
     4     3     4  ar
     5     4     5  ar
     6     5     6  ar
     7     6     7   1
     8     7     8   1
     9     8     9   1
    10     8    21   1
    11     9    10  am
    12    10    11   2
    13    10    12   1
    14    12    13   1
    15    12    17   1
    16    13    14   1
    17    14    15  ar
    18    14    16  ar
    19    17    18  am
    20    18    19   1
    21    18    20   2
    22    21    22  ar
    23    21    23  ar
    24    21    24   1
    25    24    25   1
    26    25    26   1
    27    25    27   1
    28    27    28   2
    29    27    29  am
    30    29    30   1
    31    30    31   1
    32    30    32   1
    33    32    33   2
    34    32    34  am
    35     1    35   1
    36     2    36   1
    37     3    37   1
    38     4    38   1
    39     5    39   1
    40     7    40   1
    41     7    41   1
    42     8    42   1
    43     9    43   1
    44    12    44   1
    45    13    45   1
    46    13    46   1
    47    17    47   1
    48    19    48   1
    49    19    49   1
    50    19    50   1
    51    24    51   1
    52    24    52   1
    53    25    53   1
    54    26    54   1
    55    26    55   1
    56    26    56   1
    57    29    57   1
    58    30    58   1
    59    31    59   1
    60    31    60   1
    61    31    61   1
    62    34    62   1
    63    34    63   1
@<TRIPOS>SUBSTRUCTURE
     1  RX4      1

