@<TRIPOS>MOLECULE
2x97_ligand_017
    63    63
SMALL
GAST_HUCK
****
This file was generated by PARSER (from files_GN.cpp)

@<TRIPOS>ATOM
      1 CAP        28.4729   -3.8032   36.7536 C.ar        1 RX4      -0.0602
      2 CAN        28.6940   -2.9155   35.6869 C.ar        1 RX4      -0.0686
      3 CAM        30.0019   -2.6550   35.2456 C.ar        1 RX4      -0.0687
      4 CAO        31.0882   -3.2911   35.8671 C.ar        1 RX4      -0.0686
      5 CAQ        30.8635   -4.1723   36.9418 C.ar        1 RX4      -0.0602
      6 CBC        29.5542   -4.4363   37.4203 C.ar        1 RX4      -0.0393
      7 CAS        29.3757   -5.4066   38.5444 C.3         1 RX4       0.0205
      8 CBG        27.9810   -5.5347   39.2635 C.3         1 RX4       0.1158
      9 NAW        28.1182   -5.3458   40.6896 N.am        1 RX4      -0.2644
     10 CBB        27.4730   -4.4694   41.4551 C.2         1 RX4       0.2049
     11 OAI        26.5969   -3.7530   40.9815 O.2         1 RX4      -0.3944
     12 CBF        27.7976   -4.3920   42.8786 C.3         1 RX4       0.1421
     13 CAR        27.0183   -3.2978   43.6741 C.3         1 RX4       0.0406
     14 CAZ        27.1950   -3.3150   45.1442 C.2         1 RX4       0.0393
     15 OAK        27.9603   -4.2308   45.7788 O.co2       1 RX4      -0.5688
     16 OAG        26.5186   -2.4249   45.9039 O.co2       1 RX4      -0.5688
     17 NAU        29.2052   -4.1123   42.9878 N.am        1 RX4      -0.2643
     18 CAX        30.1169   -4.7934   43.6678 C.2         1 RX4       0.1752
     19 CAA        31.4675   -4.2862   43.7227 C.3         1 RX4       0.0258
     20 OAE        29.8447   -5.8232   44.2772 O.2         1 RX4      -0.3972
     21 P1         27.1684   -6.9813   38.9761 P.3         1 RX4       0.0153
     22 O4         26.4763   -6.8749   37.7168 O.co2       1 RX4      -0.6174
     23 O3         26.0923   -7.1194   39.9238 O.co2       1 RX4      -0.6174
     24 CAT        28.0356   -8.4143   38.9056 C.3         1 RX4       0.0350
     25 CBD        29.1591   -8.6532   39.9725 C.3         1 RX4       0.0618
     26 CAB        28.6188   -9.0468   41.3767 C.3         1 RX4      -0.0438
     27 CBA        30.1116   -9.6508   39.4756 C.2         1 RX4       0.1825
     28 OAH        31.2619   -9.3074   39.2337 O.2         1 RX4      -0.3966
     29 N          29.7143  -10.8948   39.2302 N.am        1 RX4      -0.2656
     30 CA         30.5075  -11.9576   38.6696 C.3         1 RX4       0.1278
     31 CB         29.8680  -13.3261   39.0087 C.3         1 RX4      -0.0244
     32 C          30.6477  -11.7777   37.2302 C.2         1 RX4       0.1989
     33 O          31.7509  -11.6053   36.7286 O.2         1 RX4      -0.3947
     34 NAD        29.6069  -11.7823   36.4286 N.am        1 RX4      -0.2990
     35 H1         27.5072   -3.9816   37.0315 H           1 RX4       0.0557
     36 H2         27.9001   -2.4521   35.2323 H           1 RX4       0.0599
     37 H3         30.1628   -2.0017   34.4777 H           1 RX4       0.0559
     38 H4         32.0414   -3.1102   35.5386 H           1 RX4       0.0599
     39 H5         31.6755   -4.6229   37.3770 H           1 RX4       0.0557
     40 H6         30.1047   -5.1314   39.3109 H           1 RX4       0.0465
     41 H7         29.7276   -6.3632   38.1545 H           1 RX4       0.0465
     42 H8         27.3258   -4.7528   38.8842 H           1 RX4       0.0788
     43 H9         28.7648   -5.9033   41.1452 H           1 RX4       0.1872
     44 H10        27.5383   -5.3633   43.3104 H           1 RX4       0.0819
     45 H11        25.9525   -3.4091   43.4778 H           1 RX4       0.0478
     46 H12        27.3202   -2.3124   43.3117 H           1 RX4       0.0478
     47 H13        29.5183   -3.3277   42.5022 H           1 RX4       0.1884
     48 H14        32.1176   -4.9319   44.3235 H           1 RX4       0.0467
     49 H15        31.4698   -3.2858   44.1690 H           1 RX4       0.0467
     50 H16        31.8796   -4.2262   42.7110 H           1 RX4       0.0467
     51 H17        28.4799   -8.4505   37.9061 H           1 RX4       0.0493
     52 H18        27.3228   -9.2383   38.9521 H           1 RX4       0.0493
     53 H19        29.7069   -7.7167   40.1270 H           1 RX4       0.0551
     54 H20        29.4485   -9.1761   42.0767 H           1 RX4       0.0257
     55 H21        28.0486   -9.9759   41.3314 H           1 RX4       0.0257
     56 H22        27.9727   -8.2596   41.7679 H           1 RX4       0.0257
     57 H23        28.7997  -11.1166   39.4651 H           1 RX4       0.1883
     58 H24        31.4924  -11.9481   39.1456 H           1 RX4       0.0797
     59 H25        30.4810  -14.1415   38.6196 H           1 RX4       0.0277
     60 H26        28.8676  -13.4110   38.5779 H           1 RX4       0.0277
     61 H27        29.7880  -13.4421   40.0904 H           1 RX4       0.0277
     62 H28        29.7228  -11.6411   35.4759 H           1 RX4       0.1815
     63 H29        28.7160  -11.9053   36.7910 H           1 RX4       0.1815
@<TRIPOS>BOND
     1     1     2  ar
     2     1     6  ar
     3     2     3  ar
     4     3     4  ar
     5     4     5  ar
     6     5     6  ar
     7     6     7   1
     8     7     8   1
     9     8     9   1
    10     8    21   1
    11     9    10  am
    12    10    11   2
    13    10    12   1
    14    12    13   1
    15    12    17   1
    16    13    14   1
    17    14    15  ar
    18    14    16  ar
    19    17    18  am
    20    18    19   1
    21    18    20   2
    22    21    22  ar
    23    21    23  ar
    24    21    24   1
    25    24    25   1
    26    25    26   1
    27    25    27   1
    28    27    28   2
    29    27    29  am
    30    29    30   1
    31    30    31   1
    32    30    32   1
    33    32    33   2
    34    32    34  am
    35     1    35   1
    36     2    36   1
    37     3    37   1
    38     4    38   1
    39     5    39   1
    40     7    40   1
    41     7    41   1
    42     8    42   1
    43     9    43   1
    44    12    44   1
    45    13    45   1
    46    13    46   1
    47    17    47   1
    48    19    48   1
    49    19    49   1
    50    19    50   1
    51    24    51   1
    52    24    52   1
    53    25    53   1
    54    26    54   1
    55    26    55   1
    56    26    56   1
    57    29    57   1
    58    30    58   1
    59    31    59   1
    60    31    60   1
    61    31    61   1
    62    34    62   1
    63    34    63   1
@<TRIPOS>SUBSTRUCTURE
     1  RX4      1

