@<TRIPOS>MOLECULE
2x97_ligand_002
    63    63
SMALL
GAST_HUCK
****
This file was generated by PARSER (from files_GN.cpp)

@<TRIPOS>ATOM
      1 CAP        28.2120   -9.5205   36.5813 C.ar        1 RX4      -0.0602
      2 CAN        28.9495  -10.4171   35.7827 C.ar        1 RX4      -0.0686
      3 CAM        29.9619  -11.2061   36.3559 C.ar        1 RX4      -0.0687
      4 CAO        30.2295  -11.1088   37.7316 C.ar        1 RX4      -0.0686
      5 CAQ        29.5031  -10.2046   38.5255 C.ar        1 RX4      -0.0602
      6 CBC        28.4912   -9.3852   37.9667 C.ar        1 RX4      -0.0393
      7 CAS        27.6923   -8.4831   38.8533 C.3         1 RX4       0.0205
      8 CBG        27.3252   -7.0605   38.3177 C.3         1 RX4       0.1158
      9 NAW        28.4161   -6.3916   37.6674 N.am        1 RX4      -0.2644
     10 CBB        29.5038   -5.8320   38.1868 C.2         1 RX4       0.2049
     11 OAI        29.7289   -5.9057   39.3864 O.2         1 RX4      -0.3944
     12 CBF        30.4075   -5.1071   37.2886 C.3         1 RX4       0.1421
     13 CAR        31.6743   -4.5112   37.9875 C.3         1 RX4       0.0406
     14 CAZ        32.3468   -3.3801   37.3088 C.2         1 RX4       0.0393
     15 OAK        32.1383   -3.0747   36.0067 O.co2       1 RX4      -0.5688
     16 OAG        33.1260   -2.5436   38.0317 O.co2       1 RX4      -0.5688
     17 NAU        29.6759   -4.0300   36.6731 N.am        1 RX4      -0.2643
     18 CAX        29.2158   -3.9848   35.4300 C.2         1 RX4       0.1752
     19 CAA        28.5004   -2.8105   34.9803 C.3         1 RX4       0.0258
     20 OAE        29.3566   -4.9228   34.6503 O.2         1 RX4      -0.3972
     21 P1         26.4990   -6.0900   39.4315 P.3         1 RX4       0.0153
     22 O4         25.1187   -6.5153   39.3909 O.co2       1 RX4      -0.6174
     23 O3         26.4643   -4.7092   39.0153 O.co2       1 RX4      -0.6174
     24 CAT        26.9811   -6.2315   41.0319 C.3         1 RX4       0.0350
     25 CBD        26.2150   -5.3920   42.1189 C.3         1 RX4       0.0618
     26 CAB        26.2978   -6.1319   43.4924 C.3         1 RX4      -0.0438
     27 CBA        26.6580   -4.0050   42.2817 C.2         1 RX4       0.1825
     28 OAH        27.4676   -3.5138   41.5076 O.2         1 RX4      -0.3966
     29 N          26.1983   -3.2911   43.3042 N.am        1 RX4      -0.2656
     30 CA         26.6227   -1.9911   43.7367 C.3         1 RX4       0.1278
     31 CB         25.4532   -1.3108   44.5044 C.3         1 RX4      -0.0244
     32 C          27.8281   -2.0914   44.5551 C.2         1 RX4       0.1989
     33 O          27.7613   -2.1888   45.7737 O.2         1 RX4      -0.3947
     34 NAD        29.0147   -2.2366   44.0045 N.am        1 RX4      -0.2990
     35 H1         27.4732   -8.9674   36.1419 H           1 RX4       0.0557
     36 H2         28.7481  -10.4946   34.7832 H           1 RX4       0.0599
     37 H3         30.4939  -11.8551   35.7758 H           1 RX4       0.0559
     38 H4         30.9456  -11.6953   38.1563 H           1 RX4       0.0599
     39 H5         29.7066  -10.1638   39.5271 H           1 RX4       0.0557
     40 H6         28.2338   -8.3597   39.7921 H           1 RX4       0.0465
     41 H7         26.7652   -9.0090   39.0873 H           1 RX4       0.0465
     42 H8         26.6106   -7.2124   37.5053 H           1 RX4       0.0788
     43 H9         28.3291   -6.3060   36.7054 H           1 RX4       0.1872
     44 H10        30.7581   -5.8223   36.5379 H           1 RX4       0.0819
     45 H11        32.4214   -5.3030   38.1194 H           1 RX4       0.0478
     46 H12        31.3904   -4.1606   38.9832 H           1 RX4       0.0478
     47 H13        29.4963   -3.2595   37.2325 H           1 RX4       0.1884
     48 H14        28.1711   -2.9156   33.9429 H           1 RX4       0.0467
     49 H15        29.1486   -1.9350   35.0467 H           1 RX4       0.0467
     50 H16        27.6195   -2.6489   35.6053 H           1 RX4       0.0467
     51 H17        28.0473   -6.0034   41.0934 H           1 RX4       0.0493
     52 H18        26.8827   -7.2978   41.2686 H           1 RX4       0.0493
     53 H19        25.1540   -5.3642   41.8413 H           1 RX4       0.0551
     54 H20        25.6655   -5.6548   44.2433 H           1 RX4       0.0257
     55 H21        27.3296   -6.1367   43.8590 H           1 RX4       0.0257
     56 H22        25.9659   -7.1705   43.4038 H           1 RX4       0.0257
     57 H23        25.5148   -3.7071   43.8386 H           1 RX4       0.1883
     58 H24        26.8312   -1.3729   42.8595 H           1 RX4       0.0797
     59 H25        25.7436   -0.3097   44.8329 H           1 RX4       0.0277
     60 H26        25.1619   -1.8960   45.3803 H           1 RX4       0.0277
     61 H27        24.5752   -1.2165   43.8603 H           1 RX4       0.0277
     62 H28        29.7942   -2.3920   44.5608 H           1 RX4       0.1815
     63 H29        29.1093   -2.2250   43.0387 H           1 RX4       0.1815
@<TRIPOS>BOND
     1     1     2  ar
     2     1     6  ar
     3     2     3  ar
     4     3     4  ar
     5     4     5  ar
     6     5     6  ar
     7     6     7   1
     8     7     8   1
     9     8     9   1
    10     8    21   1
    11     9    10  am
    12    10    11   2
    13    10    12   1
    14    12    13   1
    15    12    17   1
    16    13    14   1
    17    14    15  ar
    18    14    16  ar
    19    17    18  am
    20    18    19   1
    21    18    20   2
    22    21    22  ar
    23    21    23  ar
    24    21    24   1
    25    24    25   1
    26    25    26   1
    27    25    27   1
    28    27    28   2
    29    27    29  am
    30    29    30   1
    31    30    31   1
    32    30    32   1
    33    32    33   2
    34    32    34  am
    35     1    35   1
    36     2    36   1
    37     3    37   1
    38     4    38   1
    39     5    39   1
    40     7    40   1
    41     7    41   1
    42     8    42   1
    43     9    43   1
    44    12    44   1
    45    13    45   1
    46    13    46   1
    47    17    47   1
    48    19    48   1
    49    19    49   1
    50    19    50   1
    51    24    51   1
    52    24    52   1
    53    25    53   1
    54    26    54   1
    55    26    55   1
    56    26    56   1
    57    29    57   1
    58    30    58   1
    59    31    59   1
    60    31    60   1
    61    31    61   1
    62    34    62   1
    63    34    63   1
@<TRIPOS>SUBSTRUCTURE
     1  RX4      1

