@<TRIPOS>MOLECULE
2x97_ligand_072
    63    63
SMALL
GAST_HUCK
****
This file was generated by PARSER (from files_GN.cpp)

@<TRIPOS>ATOM
      1 CAP        23.6307   -5.8033   38.2412 C.ar        1 RX4      -0.0602
      2 CAN        22.8357   -6.2758   37.1772 C.ar        1 RX4      -0.0686
      3 CAM        23.4444   -6.8083   36.0265 C.ar        1 RX4      -0.0687
      4 CAO        24.8463   -6.8638   35.9378 C.ar        1 RX4      -0.0686
      5 CAQ        25.6379   -6.3706   36.9944 C.ar        1 RX4      -0.0602
      6 CBC        25.0464   -5.8447   38.1698 C.ar        1 RX4      -0.0393
      7 CAS        25.8846   -5.2256   39.2380 C.3         1 RX4       0.0205
      8 CBG        26.2854   -6.1319   40.4575 C.3         1 RX4       0.1158
      9 NAW        26.4064   -5.4173   41.7126 N.am        1 RX4      -0.2644
     10 CBB        26.8380   -4.1784   41.9424 C.2         1 RX4       0.2049
     11 OAI        27.1199   -3.4416   41.0009 O.2         1 RX4      -0.3944
     12 CBF        27.0512   -3.6930   43.3061 C.3         1 RX4       0.1421
     13 CAR        26.3858   -2.3102   43.5578 C.3         1 RX4       0.0406
     14 CAZ        26.7161   -1.7452   44.8850 C.2         1 RX4       0.0393
     15 OAK        27.4114   -0.5919   44.9876 O.co2       1 RX4      -0.5688
     16 OAG        26.3405   -2.3589   46.0294 O.co2       1 RX4      -0.5688
     17 NAU        28.4738   -3.6013   43.5112 N.am        1 RX4      -0.2643
     18 CAX        29.1709   -4.0818   44.5282 C.2         1 RX4       0.1752
     19 CAA        30.6087   -3.9858   44.4911 C.3         1 RX4       0.0258
     20 OAE        28.6266   -4.5897   45.5061 O.2         1 RX4      -0.3972
     21 P1         27.6031   -7.1653   40.2387 P.3         1 RX4       0.0153
     22 O4         28.0600   -7.0489   38.8718 O.co2       1 RX4      -0.6174
     23 O3         27.1571   -8.5422   40.1856 O.co2       1 RX4      -0.6174
     24 CAT        29.0072   -7.0101   41.1566 C.3         1 RX4       0.0350
     25 CBD        29.4959   -8.2783   41.9441 C.3         1 RX4       0.0618
     26 CAB        31.0426   -8.2852   42.1311 C.3         1 RX4      -0.0438
     27 CBA        28.8376   -8.4179   43.2455 C.2         1 RX4       0.1825
     28 OAH        29.0417   -7.5600   44.1005 O.2         1 RX4      -0.3966
     29 N          28.1162   -9.4990   43.5304 N.am        1 RX4      -0.2656
     30 CA         27.5480   -9.8537   44.8026 C.3         1 RX4       0.1278
     31 CB         26.0887  -10.3406   44.6251 C.3         1 RX4      -0.0244
     32 C          28.3819  -10.8708   45.4329 C.2         1 RX4       0.1989
     33 O          28.8605  -10.6780   46.5396 O.2         1 RX4      -0.3947
     34 NAD        28.6643  -12.0158   44.8434 N.am        1 RX4      -0.2990
     35 H1         23.1652   -5.4133   39.0675 H           1 RX4       0.0557
     36 H2         21.8142   -6.2228   37.2300 H           1 RX4       0.0599
     37 H3         22.8721   -7.1361   35.2436 H           1 RX4       0.0559
     38 H4         25.2900   -7.2327   35.0955 H           1 RX4       0.0599
     39 H5         26.6531   -6.3930   36.8897 H           1 RX4       0.0557
     40 H6         25.3160   -4.3796   39.6179 H           1 RX4       0.0465
     41 H7         26.7844   -4.7908   38.7930 H           1 RX4       0.0465
     42 H8         25.4270   -6.7863   40.6230 H           1 RX4       0.0788
     43 H9         26.1907   -5.9450   42.5052 H           1 RX4       0.1872
     44 H10        26.5899   -4.4057   44.0022 H           1 RX4       0.0819
     45 H11        25.2991   -2.4049   43.4904 H           1 RX4       0.0478
     46 H12        26.7045   -1.6080   42.7853 H           1 RX4       0.0478
     47 H13        28.9744   -3.1411   42.8103 H           1 RX4       0.1884
     48 H14        31.0630   -4.3636   45.4100 H           1 RX4       0.0467
     49 H15        30.9088   -2.9433   44.3577 H           1 RX4       0.0467
     50 H16        30.9852   -4.5765   43.6517 H           1 RX4       0.0467
     51 H17        28.8950   -6.1882   41.8593 H           1 RX4       0.0493
     52 H18        29.8098   -6.6999   40.4832 H           1 RX4       0.0493
     53 H19        29.2829   -9.1643   41.3323 H           1 RX4       0.0551
     54 H20        31.3596   -9.1624   42.7013 H           1 RX4       0.0257
     55 H21        31.3797   -7.3899   42.6552 H           1 RX4       0.0257
     56 H22        31.5388   -8.3233   41.1588 H           1 RX4       0.0257
     57 H23        27.9858  -10.1414   42.8165 H           1 RX4       0.1883
     58 H24        27.5002   -8.9799   45.4661 H           1 RX4       0.0797
     59 H25        25.6646  -10.6436   45.5873 H           1 RX4       0.0277
     60 H26        26.0373  -11.1883   43.9367 H           1 RX4       0.0277
     61 H27        25.4821   -9.5270   44.2280 H           1 RX4       0.0277
     62 H28        29.2321  -12.6586   45.3002 H           1 RX4       0.1815
     63 H29        28.3114  -12.2242   43.9607 H           1 RX4       0.1815
@<TRIPOS>BOND
     1     1     2  ar
     2     1     6  ar
     3     2     3  ar
     4     3     4  ar
     5     4     5  ar
     6     5     6  ar
     7     6     7   1
     8     7     8   1
     9     8     9   1
    10     8    21   1
    11     9    10  am
    12    10    11   2
    13    10    12   1
    14    12    13   1
    15    12    17   1
    16    13    14   1
    17    14    15  ar
    18    14    16  ar
    19    17    18  am
    20    18    19   1
    21    18    20   2
    22    21    22  ar
    23    21    23  ar
    24    21    24   1
    25    24    25   1
    26    25    26   1
    27    25    27   1
    28    27    28   2
    29    27    29  am
    30    29    30   1
    31    30    31   1
    32    30    32   1
    33    32    33   2
    34    32    34  am
    35     1    35   1
    36     2    36   1
    37     3    37   1
    38     4    38   1
    39     5    39   1
    40     7    40   1
    41     7    41   1
    42     8    42   1
    43     9    43   1
    44    12    44   1
    45    13    45   1
    46    13    46   1
    47    17    47   1
    48    19    48   1
    49    19    49   1
    50    19    50   1
    51    24    51   1
    52    24    52   1
    53    25    53   1
    54    26    54   1
    55    26    55   1
    56    26    56   1
    57    29    57   1
    58    30    58   1
    59    31    59   1
    60    31    60   1
    61    31    61   1
    62    34    62   1
    63    34    63   1
@<TRIPOS>SUBSTRUCTURE
     1  RX4      1

