@<TRIPOS>MOLECULE
2x97_ligand_023
    63    63
SMALL
GAST_HUCK
****
This file was generated by PARSER (from files_GN.cpp)

@<TRIPOS>ATOM
      1 CAP        29.2888   -5.2858   38.8889 C.ar        1 RX4      -0.0602
      2 CAN        28.7625   -4.6301   37.7604 C.ar        1 RX4      -0.0686
      3 CAM        29.6267   -4.0603   36.8138 C.ar        1 RX4      -0.0687
      4 CAO        31.0200   -4.1300   37.0077 C.ar        1 RX4      -0.0686
      5 CAQ        31.5414   -4.7693   38.1494 C.ar        1 RX4      -0.0602
      6 CBC        30.6861   -5.3570   39.1144 C.ar        1 RX4      -0.0393
      7 CAS        31.2329   -5.9549   40.3724 C.3         1 RX4       0.0205
      8 CBG        30.7979   -7.4240   40.7462 C.3         1 RX4       0.1158
      9 NAW        29.9444   -8.0469   39.7638 N.am        1 RX4      -0.2644
     10 CBB        30.3288   -8.7681   38.7149 C.2         1 RX4       0.2049
     11 OAI        31.5198   -8.8922   38.4543 O.2         1 RX4      -0.3944
     12 CBF        29.3155   -9.4270   37.8992 C.3         1 RX4       0.1421
     13 CAR        29.8376  -10.5787   36.9789 C.3         1 RX4       0.0406
     14 CAZ        30.1656  -11.8019   37.7377 C.2         1 RX4       0.0393
     15 OAK        31.4459  -12.1338   38.0158 O.co2       1 RX4      -0.5688
     16 OAG        29.1866  -12.6714   38.0752 O.co2       1 RX4      -0.5688
     17 NAU        28.6759   -8.4470   37.0630 N.am        1 RX4      -0.2643
     18 CAX        27.4836   -7.8958   37.2410 C.2         1 RX4       0.1752
     19 CAA        26.9352   -7.0764   36.1846 C.3         1 RX4       0.0258
     20 OAE        26.8295   -8.0794   38.2587 O.2         1 RX4      -0.3972
     21 P1         30.1249   -7.6412   42.2813 P.3         1 RX4       0.0153
     22 O4         31.1948   -8.1414   43.1130 O.co2       1 RX4      -0.6174
     23 O3         29.2365   -8.7720   42.3293 O.co2       1 RX4      -0.6174
     24 CAT        29.4747   -6.4028   43.2074 C.3         1 RX4       0.0350
     25 CBD        28.2055   -5.6296   42.7110 C.3         1 RX4       0.0618
     26 CAB        26.9804   -6.5313   42.3955 C.3         1 RX4      -0.0438
     27 CBA        27.8343   -4.5879   43.6693 C.2         1 RX4       0.1825
     28 OAH        27.3800   -4.9244   44.7618 O.2         1 RX4      -0.3966
     29 N          28.0002   -3.2981   43.3841 N.am        1 RX4      -0.2656
     30 CA         27.8659   -2.1999   44.2977 C.3         1 RX4       0.1278
     31 CB         28.2593   -0.8697   43.6031 C.3         1 RX4      -0.0244
     32 C          26.5383   -2.1129   44.8994 C.2         1 RX4       0.1989
     33 O          26.3594   -2.4470   46.0607 O.2         1 RX4      -0.3947
     34 NAD        25.4908   -1.6706   44.2378 N.am        1 RX4      -0.2990
     35 H1         28.6351   -5.7205   39.5360 H           1 RX4       0.0557
     36 H2         27.7491   -4.5714   37.6306 H           1 RX4       0.0599
     37 H3         29.2489   -3.5844   35.9970 H           1 RX4       0.0559
     38 H4         31.6491   -3.7024   36.3274 H           1 RX4       0.0599
     39 H5         32.5556   -4.7842   38.2797 H           1 RX4       0.0557
     40 H6         30.9895   -5.2533   41.1732 H           1 RX4       0.0465
     41 H7         32.3284   -5.9438   40.3251 H           1 RX4       0.0465
     42 H8         31.7231   -8.0143   40.7661 H           1 RX4       0.0788
     43 H9         28.9894   -7.9839   39.9164 H           1 RX4       0.1872
     44 H10        28.5759   -9.8743   38.5750 H           1 RX4       0.0819
     45 H11        30.7171  -10.2421   36.4245 H           1 RX4       0.0478
     46 H12        29.0752  -10.8407   36.2422 H           1 RX4       0.0478
     47 H13        29.1324   -8.2019   36.2416 H           1 RX4       0.1884
     48 H14        26.0355   -6.5477   36.5110 H           1 RX4       0.0467
     49 H15        26.6699   -7.7107   35.3354 H           1 RX4       0.0467
     50 H16        27.6663   -6.3346   35.8529 H           1 RX4       0.0467
     51 H17        30.2754   -5.6771   43.3653 H           1 RX4       0.0493
     52 H18        29.2500   -6.8394   44.1839 H           1 RX4       0.0493
     53 H19        28.4788   -5.1328   41.7839 H           1 RX4       0.0551
     54 H20        26.1234   -5.9236   42.0983 H           1 RX4       0.0257
     55 H21        26.6947   -7.1252   43.2650 H           1 RX4       0.0257
     56 H22        27.2112   -7.2090   41.5734 H           1 RX4       0.0257
     57 H23        28.3445   -3.0816   42.5053 H           1 RX4       0.1883
     58 H24        28.6036   -2.3662   45.0905 H           1 RX4       0.0797
     59 H25        28.1932   -0.0369   44.3063 H           1 RX4       0.0277
     60 H26        27.6023   -0.6675   42.7544 H           1 RX4       0.0277
     61 H27        29.2853   -0.9314   43.2401 H           1 RX4       0.0277
     62 H28        24.6184   -1.6374   44.6670 H           1 RX4       0.1815
     63 H29        25.5843   -1.3575   43.3237 H           1 RX4       0.1815
@<TRIPOS>BOND
     1     1     2  ar
     2     1     6  ar
     3     2     3  ar
     4     3     4  ar
     5     4     5  ar
     6     5     6  ar
     7     6     7   1
     8     7     8   1
     9     8     9   1
    10     8    21   1
    11     9    10  am
    12    10    11   2
    13    10    12   1
    14    12    13   1
    15    12    17   1
    16    13    14   1
    17    14    15  ar
    18    14    16  ar
    19    17    18  am
    20    18    19   1
    21    18    20   2
    22    21    22  ar
    23    21    23  ar
    24    21    24   1
    25    24    25   1
    26    25    26   1
    27    25    27   1
    28    27    28   2
    29    27    29  am
    30    29    30   1
    31    30    31   1
    32    30    32   1
    33    32    33   2
    34    32    34  am
    35     1    35   1
    36     2    36   1
    37     3    37   1
    38     4    38   1
    39     5    39   1
    40     7    40   1
    41     7    41   1
    42     8    42   1
    43     9    43   1
    44    12    44   1
    45    13    45   1
    46    13    46   1
    47    17    47   1
    48    19    48   1
    49    19    49   1
    50    19    50   1
    51    24    51   1
    52    24    52   1
    53    25    53   1
    54    26    54   1
    55    26    55   1
    56    26    56   1
    57    29    57   1
    58    30    58   1
    59    31    59   1
    60    31    60   1
    61    31    61   1
    62    34    62   1
    63    34    63   1
@<TRIPOS>SUBSTRUCTURE
     1  RX4      1

