@<TRIPOS>MOLECULE
2x97_ligand_014
    63    63
SMALL
GAST_HUCK
****
This file was generated by PARSER (from files_GN.cpp)

@<TRIPOS>ATOM
      1 CAP        30.5861   -9.7094   37.8263 C.ar        1 RX4      -0.0602
      2 CAN        30.9717  -10.3242   36.6187 C.ar        1 RX4      -0.0686
      3 CAM        30.0026  -10.6368   35.6521 C.ar        1 RX4      -0.0687
      4 CAO        28.6508  -10.3139   35.8828 C.ar        1 RX4      -0.0686
      5 CAQ        28.2690   -9.6900   37.0869 C.ar        1 RX4      -0.0602
      6 CBC        29.2288   -9.3880   38.0826 C.ar        1 RX4      -0.0393
      7 CAS        28.8261   -8.7786   39.3866 C.3         1 RX4       0.0205
      8 CBG        28.5294   -7.2438   39.3450 C.3         1 RX4       0.1158
      9 NAW        29.5113   -6.5240   38.5604 N.am        1 RX4      -0.2644
     10 CBB        29.3008   -5.3813   37.9022 C.2         1 RX4       0.2049
     11 OAI        28.2153   -4.8189   38.0134 O.2         1 RX4      -0.3944
     12 CBF        30.3225   -4.7979   37.0252 C.3         1 RX4       0.1421
     13 CAR        31.5997   -4.3668   37.8117 C.3         1 RX4       0.0406
     14 CAZ        32.4037   -3.2607   37.2407 C.2         1 RX4       0.0393
     15 OAK        33.1578   -2.4972   38.0653 O.co2       1 RX4      -0.5688
     16 OAG        32.2888   -2.8510   35.9584 O.co2       1 RX4      -0.5688
     17 NAU        29.8033   -3.6351   36.3359 N.am        1 RX4      -0.2643
     18 CAX        29.4340   -3.5385   35.0607 C.2         1 RX4       0.1752
     19 CAA        28.9602   -2.2662   34.5664 C.3         1 RX4       0.0258
     20 OAE        29.4785   -4.5010   34.3053 O.2         1 RX4      -0.3972
     21 P1         28.3224   -6.5294   40.8605 P.3         1 RX4       0.0153
     22 O4         26.9404   -6.6967   41.2672 O.co2       1 RX4      -0.6174
     23 O3         28.3736   -5.0945   40.6985 O.co2       1 RX4      -0.6174
     24 CAT        29.3316   -6.9655   42.1307 C.3         1 RX4       0.0350
     25 CBD        30.2918   -5.9020   42.7663 C.3         1 RX4       0.0618
     26 CAB        31.1479   -5.1478   41.7079 C.3         1 RX4      -0.0438
     27 CBA        29.6209   -5.0357   43.7402 C.2         1 RX4       0.1825
     28 OAH        29.4399   -5.4947   44.8659 O.2         1 RX4      -0.3966
     29 N          29.1976   -3.8072   43.4472 N.am        1 RX4      -0.2656
     30 CA         28.5811   -2.8885   44.3666 C.3         1 RX4       0.1278
     31 CB         28.4351   -1.4931   43.7120 C.3         1 RX4      -0.0244
     32 C          27.2844   -3.3311   44.8688 C.2         1 RX4       0.1989
     33 O          26.8319   -2.8428   45.8995 O.2         1 RX4      -0.3947
     34 NAD        26.5250   -4.1460   44.1745 N.am        1 RX4      -0.2990
     35 H1         31.3089   -9.5012   38.5151 H           1 RX4       0.0557
     36 H2         31.9553  -10.5488   36.4452 H           1 RX4       0.0599
     37 H3         30.2767  -11.0947   34.7768 H           1 RX4       0.0559
     38 H4         27.9512  -10.5353   35.1717 H           1 RX4       0.0599
     39 H5         27.2819   -9.4733   37.2393 H           1 RX4       0.0557
     40 H6         29.6098   -8.9900   40.1152 H           1 RX4       0.0465
     41 H7         27.9376   -9.3045   39.7480 H           1 RX4       0.0465
     42 H8         27.5597   -7.1595   38.8410 H           1 RX4       0.0788
     43 H9         30.3738   -6.9484   38.4476 H           1 RX4       0.1872
     44 H10        30.6179   -5.5679   36.3060 H           1 RX4       0.0819
     45 H11        32.2615   -5.2268   37.9251 H           1 RX4       0.0478
     46 H12        31.3011   -4.0477   38.8101 H           1 RX4       0.0478
     47 H13        29.7217   -2.8315   36.8727 H           1 RX4       0.1884
     48 H14        28.6565   -2.3314   33.5174 H           1 RX4       0.0467
     49 H15        29.7517   -1.5191   34.6462 H           1 RX4       0.0467
     50 H16        28.1011   -1.9350   35.1529 H           1 RX4       0.0467
     51 H17        29.9637   -7.7809   41.7798 H           1 RX4       0.0493
     52 H18        28.7108   -7.3809   42.9303 H           1 RX4       0.0493
     53 H19        31.0251   -6.4888   43.3354 H           1 RX4       0.0551
     54 H20        31.8761   -4.5050   42.2101 H           1 RX4       0.0257
     55 H21        30.4949   -4.5334   41.0735 H           1 RX4       0.0257
     56 H22        31.6852   -5.8639   41.0759 H           1 RX4       0.0257
     57 H23        29.3277   -3.4850   42.5384 H           1 RX4       0.1883
     58 H24        29.2707   -2.7900   45.2121 H           1 RX4       0.0797
     59 H25        28.0821   -0.7616   44.4393 H           1 RX4       0.0277
     60 H26        27.7272   -1.5289   42.8842 H           1 RX4       0.0277
     61 H27        29.3974   -1.1536   43.3304 H           1 RX4       0.0277
     62 H28        25.6218   -4.3442   44.4577 H           1 RX4       0.1815
     63 H29        26.8464   -4.5084   43.3345 H           1 RX4       0.1815
@<TRIPOS>BOND
     1     1     2  ar
     2     1     6  ar
     3     2     3  ar
     4     3     4  ar
     5     4     5  ar
     6     5     6  ar
     7     6     7   1
     8     7     8   1
     9     8     9   1
    10     8    21   1
    11     9    10  am
    12    10    11   2
    13    10    12   1
    14    12    13   1
    15    12    17   1
    16    13    14   1
    17    14    15  ar
    18    14    16  ar
    19    17    18  am
    20    18    19   1
    21    18    20   2
    22    21    22  ar
    23    21    23  ar
    24    21    24   1
    25    24    25   1
    26    25    26   1
    27    25    27   1
    28    27    28   2
    29    27    29  am
    30    29    30   1
    31    30    31   1
    32    30    32   1
    33    32    33   2
    34    32    34  am
    35     1    35   1
    36     2    36   1
    37     3    37   1
    38     4    38   1
    39     5    39   1
    40     7    40   1
    41     7    41   1
    42     8    42   1
    43     9    43   1
    44    12    44   1
    45    13    45   1
    46    13    46   1
    47    17    47   1
    48    19    48   1
    49    19    49   1
    50    19    50   1
    51    24    51   1
    52    24    52   1
    53    25    53   1
    54    26    54   1
    55    26    55   1
    56    26    56   1
    57    29    57   1
    58    30    58   1
    59    31    59   1
    60    31    60   1
    61    31    61   1
    62    34    62   1
    63    34    63   1
@<TRIPOS>SUBSTRUCTURE
     1  RX4      1

