@<TRIPOS>MOLECULE
2x97_ligand_050
    63    63
SMALL
GAST_HUCK
****
This file was generated by PARSER (from files_GN.cpp)

@<TRIPOS>ATOM
      1 CAP        31.0537   -5.6380   43.1378 C.ar        1 RX4      -0.0602
      2 CAN        31.4113   -4.4935   43.8714 C.ar        1 RX4      -0.0686
      3 CAM        31.9021   -4.6184   45.1785 C.ar        1 RX4      -0.0687
      4 CAO        32.0073   -5.8901   45.7695 C.ar        1 RX4      -0.0686
      5 CAQ        31.6475   -7.0340   45.0345 C.ar        1 RX4      -0.0602
      6 CBC        31.1378   -6.9321   43.7186 C.ar        1 RX4      -0.0393
      7 CAS        30.7736   -8.1702   42.9475 C.3         1 RX4       0.0205
      8 CBG        29.3761   -8.2339   42.2415 C.3         1 RX4       0.1158
      9 NAW        29.4368   -7.5253   40.9798 N.am        1 RX4      -0.2644
     10 CBB        28.7871   -7.8116   39.8570 C.2         1 RX4       0.2049
     11 OAI        27.8643   -8.6193   39.8683 O.2         1 RX4      -0.3944
     12 CBF        29.2214   -7.2966   38.5506 C.3         1 RX4       0.1421
     13 CAR        30.5249   -6.4310   38.4983 C.3         1 RX4       0.0406
     14 CAZ        31.7083   -7.1246   39.0449 C.2         1 RX4       0.0393
     15 OAK        32.2210   -8.2263   38.4419 O.co2       1 RX4      -0.5688
     16 OAG        32.3216   -6.6670   40.1591 O.co2       1 RX4      -0.5688
     17 NAU        28.1164   -6.6776   37.8715 N.am        1 RX4      -0.2643
     18 CAX        27.5833   -5.4783   38.0578 C.2         1 RX4       0.1752
     19 CAA        26.4187   -5.1061   37.2894 C.3         1 RX4       0.0258
     20 OAE        28.0997   -4.6433   38.8042 O.2         1 RX4      -0.3972
     21 P1         28.0479   -7.8453   43.2095 P.3         1 RX4       0.0153
     22 O4         28.4281   -7.2928   44.4896 O.co2       1 RX4      -0.6174
     23 O3         27.4187   -9.0808   43.6210 O.co2       1 RX4      -0.6174
     24 CAT        26.8211   -6.9093   42.5629 C.3         1 RX4       0.0350
     25 CBD        27.1542   -5.4053   42.2526 C.3         1 RX4       0.0618
     26 CAB        26.0784   -4.8318   41.2883 C.3         1 RX4      -0.0438
     27 CBA        27.2752   -4.5231   43.4138 C.2         1 RX4       0.1825
     28 OAH        26.8798   -4.8769   44.5155 O.2         1 RX4      -0.3966
     29 N          27.7538   -3.2909   43.2484 N.am        1 RX4      -0.2656
     30 CA         27.8599   -2.2737   44.2596 C.3         1 RX4       0.1278
     31 CB         28.3827   -0.9629   43.6239 C.3         1 RX4      -0.0244
     32 C          26.5903   -2.0549   44.9396 C.2         1 RX4       0.1989
     33 O          26.4377   -2.4134   46.0986 O.2         1 RX4      -0.3947
     34 NAD        25.5429   -1.5563   44.3271 N.am        1 RX4      -0.2990
     35 H1         30.7072   -5.5078   42.1870 H           1 RX4       0.0557
     36 H2         31.3298   -3.5713   43.4425 H           1 RX4       0.0599
     37 H3         32.1929   -3.7922   45.6958 H           1 RX4       0.0559
     38 H4         32.3638   -5.9847   46.7170 H           1 RX4       0.0599
     39 H5         31.7357   -7.9533   45.4843 H           1 RX4       0.0557
     40 H6         30.8259   -9.0376   43.6117 H           1 RX4       0.0465
     41 H7         31.5404   -8.3297   42.1870 H           1 RX4       0.0465
     42 H8         29.2516   -9.2983   41.9756 H           1 RX4       0.0788
     43 H9         30.1775   -6.9080   40.8894 H           1 RX4       0.1872
     44 H10        29.4408   -8.1791   37.9443 H           1 RX4       0.0819
     45 H11        30.3765   -5.4951   39.0570 H           1 RX4       0.0478
     46 H12        30.7478   -6.1709   37.4597 H           1 RX4       0.0478
     47 H13        27.6653   -7.2365   37.2049 H           1 RX4       0.1884
     48 H14        26.1733   -4.0465   37.4113 H           1 RX4       0.0467
     49 H15        25.5631   -5.7051   37.6266 H           1 RX4       0.0467
     50 H16        26.5909   -5.3026   36.2230 H           1 RX4       0.0467
     51 H17        25.9686   -6.9472   43.2487 H           1 RX4       0.0493
     52 H18        26.5091   -7.4115   41.6412 H           1 RX4       0.0493
     53 H19        28.1093   -5.3746   41.7214 H           1 RX4       0.0551
     54 H20        26.3410   -3.8190   40.9687 H           1 RX4       0.0257
     55 H21        25.1004   -4.8013   41.7782 H           1 RX4       0.0257
     56 H22        25.9927   -5.4491   40.3888 H           1 RX4       0.0257
     57 H23        28.0802   -3.0570   42.3639 H           1 RX4       0.1883
     58 H24        28.6147   -2.6060   44.9799 H           1 RX4       0.0797
     59 H25        28.5136   -0.1919   44.3915 H           1 RX4       0.0277
     60 H26        27.6948   -0.5909   42.8632 H           1 RX4       0.0277
     61 H27        29.3560   -1.1421   43.1550 H           1 RX4       0.0277
     62 H28        24.6805   -1.5035   44.7818 H           1 RX4       0.1815
     63 H29        25.6074   -1.2753   43.3995 H           1 RX4       0.1815
@<TRIPOS>BOND
     1     1     2  ar
     2     1     6  ar
     3     2     3  ar
     4     3     4  ar
     5     4     5  ar
     6     5     6  ar
     7     6     7   1
     8     7     8   1
     9     8     9   1
    10     8    21   1
    11     9    10  am
    12    10    11   2
    13    10    12   1
    14    12    13   1
    15    12    17   1
    16    13    14   1
    17    14    15  ar
    18    14    16  ar
    19    17    18  am
    20    18    19   1
    21    18    20   2
    22    21    22  ar
    23    21    23  ar
    24    21    24   1
    25    24    25   1
    26    25    26   1
    27    25    27   1
    28    27    28   2
    29    27    29  am
    30    29    30   1
    31    30    31   1
    32    30    32   1
    33    32    33   2
    34    32    34  am
    35     1    35   1
    36     2    36   1
    37     3    37   1
    38     4    38   1
    39     5    39   1
    40     7    40   1
    41     7    41   1
    42     8    42   1
    43     9    43   1
    44    12    44   1
    45    13    45   1
    46    13    46   1
    47    17    47   1
    48    19    48   1
    49    19    49   1
    50    19    50   1
    51    24    51   1
    52    24    52   1
    53    25    53   1
    54    26    54   1
    55    26    55   1
    56    26    56   1
    57    29    57   1
    58    30    58   1
    59    31    59   1
    60    31    60   1
    61    31    61   1
    62    34    62   1
    63    34    63   1
@<TRIPOS>SUBSTRUCTURE
     1  RX4      1

