@<TRIPOS>MOLECULE
2x97_ligand_030
    63    63
SMALL
GAST_HUCK
****
This file was generated by PARSER (from files_GN.cpp)

@<TRIPOS>ATOM
      1 CAP        28.8168   -6.6544   39.1553 C.ar        1 RX4      -0.0602
      2 CAN        28.6299   -7.5714   38.1028 C.ar        1 RX4      -0.0686
      3 CAM        29.7357   -8.2107   37.5193 C.ar        1 RX4      -0.0687
      4 CAO        31.0350   -7.9292   37.9819 C.ar        1 RX4      -0.0686
      5 CAQ        31.2210   -7.0243   39.0432 C.ar        1 RX4      -0.0602
      6 CBC        30.1149   -6.3787   39.6505 C.ar        1 RX4      -0.0393
      7 CAS        30.3235   -5.4243   40.7746 C.3         1 RX4       0.0205
      8 CBG        30.6783   -6.1349   42.1206 C.3         1 RX4       0.1158
      9 NAW        29.5744   -6.9473   42.5415 N.am        1 RX4      -0.2644
     10 CBB        29.6288   -8.1624   43.0969 C.2         1 RX4       0.2049
     11 OAI        30.7103   -8.6881   43.3351 O.2         1 RX4      -0.3944
     12 CBF        28.3771   -8.8615   43.3807 C.3         1 RX4       0.1421
     13 CAR        28.4903  -10.2458   44.1063 C.3         1 RX4       0.0406
     14 CAZ        28.6160  -10.1356   45.5751 C.2         1 RX4       0.0393
     15 OAK        29.6572   -9.4867   46.1434 O.co2       1 RX4      -0.5688
     16 OAG        27.6667  -10.6582   46.3883 O.co2       1 RX4      -0.5688
     17 NAU        27.5539   -8.9857   42.2135 N.am        1 RX4      -0.2643
     18 CAX        27.9004   -9.3652   40.9865 C.2         1 RX4       0.1752
     19 CAA        26.8697   -9.4718   39.9872 C.3         1 RX4       0.0258
     20 OAE        29.0669   -9.6120   40.6915 O.2         1 RX4      -0.3972
     21 P1         31.1535   -5.0821   43.3335 P.3         1 RX4       0.0153
     22 O4         32.3467   -4.4238   42.8687 O.co2       1 RX4      -0.6174
     23 O3         31.6532   -5.8401   44.4520 O.co2       1 RX4      -0.6174
     24 CAT        30.1388   -3.8828   43.8909 C.3         1 RX4       0.0350
     25 CBD        28.7042   -4.2711   44.3907 C.3         1 RX4       0.0618
     26 CAB        28.6764   -5.3876   45.4833 C.3         1 RX4      -0.0438
     27 CBA        28.0351   -3.0601   44.8554 C.2         1 RX4       0.1825
     28 OAH        27.5754   -3.0067   46.0030 O.2         1 RX4      -0.3966
     29 N          27.9371   -1.9805   44.0731 N.am        1 RX4      -0.2656
     30 CA         27.3980   -0.7009   44.4439 C.3         1 RX4       0.1278
     31 CB         27.4270    0.2420   43.2052 C.3         1 RX4      -0.0244
     32 C          26.0974   -0.8376   45.1022 C.2         1 RX4       0.1989
     33 O          26.0391   -1.3156   46.2282 O.2         1 RX4      -0.3947
     34 NAD        24.9453   -0.5982   44.5094 N.am        1 RX4      -0.2990
     35 H1         28.0001   -6.1934   39.5555 H           1 RX4       0.0557
     36 H2         27.6866   -7.7735   37.7615 H           1 RX4       0.0599
     37 H3         29.5981   -8.8771   36.7530 H           1 RX4       0.0559
     38 H4         31.8390   -8.3862   37.5506 H           1 RX4       0.0599
     39 H5         32.1733   -6.8401   39.3697 H           1 RX4       0.0557
     40 H6         29.4324   -4.8086   40.9306 H           1 RX4       0.0465
     41 H7         31.1300   -4.7443   40.4807 H           1 RX4       0.0465
     42 H8         31.5455   -6.7729   41.9231 H           1 RX4       0.0788
     43 H9         28.6878   -6.5978   42.3700 H           1 RX4       0.1872
     44 H10        27.8060   -8.2138   44.0539 H           1 RX4       0.0819
     45 H11        29.3408  -10.8101   43.7248 H           1 RX4       0.0478
     46 H12        27.5921  -10.8340   43.8929 H           1 RX4       0.0478
     47 H13        26.6126   -8.7905   42.3315 H           1 RX4       0.1884
     48 H14        27.2821   -9.7191   39.0051 H           1 RX4       0.0467
     49 H15        26.3205   -8.5324   39.9056 H           1 RX4       0.0467
     50 H16        26.1679  -10.2636   40.2665 H           1 RX4       0.0467
     51 H17        30.0360   -3.1611   43.0777 H           1 RX4       0.0493
     52 H18        30.6618   -3.3754   44.7065 H           1 RX4       0.0493
     53 H19        28.1352   -4.6523   43.5360 H           1 RX4       0.0551
     54 H20        27.6492   -5.5897   45.7942 H           1 RX4       0.0257
     55 H21        29.2492   -5.0783   46.3597 H           1 RX4       0.0257
     56 H22        29.0894   -6.3234   45.1190 H           1 RX4       0.0257
     57 H23        28.3255   -2.0567   43.1833 H           1 RX4       0.1883
     58 H24        28.0810   -0.2355   45.1634 H           1 RX4       0.0797
     59 H25        27.0248    1.2247   43.4613 H           1 RX4       0.0277
     60 H26        26.8432   -0.1794   42.3877 H           1 RX4       0.0277
     61 H27        28.4568    0.3731   42.8597 H           1 RX4       0.0277
     62 H28        24.1211   -0.8548   44.9474 H           1 RX4       0.1815
     63 H29        24.9275   -0.2886   43.5953 H           1 RX4       0.1815
@<TRIPOS>BOND
     1     1     2  ar
     2     1     6  ar
     3     2     3  ar
     4     3     4  ar
     5     4     5  ar
     6     5     6  ar
     7     6     7   1
     8     7     8   1
     9     8     9   1
    10     8    21   1
    11     9    10  am
    12    10    11   2
    13    10    12   1
    14    12    13   1
    15    12    17   1
    16    13    14   1
    17    14    15  ar
    18    14    16  ar
    19    17    18  am
    20    18    19   1
    21    18    20   2
    22    21    22  ar
    23    21    23  ar
    24    21    24   1
    25    24    25   1
    26    25    26   1
    27    25    27   1
    28    27    28   2
    29    27    29  am
    30    29    30   1
    31    30    31   1
    32    30    32   1
    33    32    33   2
    34    32    34  am
    35     1    35   1
    36     2    36   1
    37     3    37   1
    38     4    38   1
    39     5    39   1
    40     7    40   1
    41     7    41   1
    42     8    42   1
    43     9    43   1
    44    12    44   1
    45    13    45   1
    46    13    46   1
    47    17    47   1
    48    19    48   1
    49    19    49   1
    50    19    50   1
    51    24    51   1
    52    24    52   1
    53    25    53   1
    54    26    54   1
    55    26    55   1
    56    26    56   1
    57    29    57   1
    58    30    58   1
    59    31    59   1
    60    31    60   1
    61    31    61   1
    62    34    62   1
    63    34    63   1
@<TRIPOS>SUBSTRUCTURE
     1  RX4      1

