@<TRIPOS>MOLECULE
2x97_ligand_003
    63    63
SMALL
GAST_HUCK
****
This file was generated by PARSER (from files_GN.cpp)

@<TRIPOS>ATOM
      1 CAP        29.4815  -10.2803   39.3772 C.ar        1 RX4      -0.0602
      2 CAN        29.6418  -11.0947   38.2408 C.ar        1 RX4      -0.0686
      3 CAM        30.5320  -10.7155   37.2188 C.ar        1 RX4      -0.0687
      4 CAO        31.2691   -9.5242   37.3420 C.ar        1 RX4      -0.0686
      5 CAQ        31.1167   -8.7155   38.4830 C.ar        1 RX4      -0.0602
      6 CBC        30.2215   -9.0797   39.5206 C.ar        1 RX4      -0.0393
      7 CAS        30.0182   -8.1989   40.7077 C.3         1 RX4       0.0205
      8 CBG        29.2061   -6.9127   40.3382 C.3         1 RX4       0.1158
      9 NAW        29.9571   -6.1408   39.3906 N.am        1 RX4      -0.2644
     10 CBB        29.5783   -5.6960   38.1888 C.2         1 RX4       0.2049
     11 OAI        28.4654   -5.9743   37.7497 O.2         1 RX4      -0.3944
     12 CBF        30.5090   -5.0041   37.2925 C.3         1 RX4       0.1421
     13 CAR        31.7671   -4.3896   37.9866 C.3         1 RX4       0.0406
     14 CAZ        32.4467   -3.2684   37.3124 C.2         1 RX4       0.0393
     15 OAK        33.2394   -2.4628   38.0574 O.co2       1 RX4      -0.5688
     16 OAG        32.2690   -2.9682   36.0096 O.co2       1 RX4      -0.5688
     17 NAU        29.8277   -3.9424   36.6024 N.am        1 RX4      -0.2643
     18 CAX        29.5183   -3.8866   35.3137 C.2         1 RX4       0.1752
     19 CAA        28.9755   -2.6592   34.7808 C.3         1 RX4       0.0258
     20 OAE        29.7501   -4.8163   34.5518 O.2         1 RX4      -0.3972
     21 P1         28.8662   -5.9249   41.6478 P.3         1 RX4       0.0153
     22 O4         28.0037   -4.8753   41.1607 O.co2       1 RX4      -0.6174
     23 O3         30.0683   -5.2572   42.0963 O.co2       1 RX4      -0.6174
     24 CAT        28.1223   -6.7299   42.9095 C.3         1 RX4       0.0350
     25 CBD        26.9063   -6.0086   43.5837 C.3         1 RX4       0.0618
     26 CAB        26.0375   -7.0171   44.3917 C.3         1 RX4      -0.0438
     27 CBA        27.2985   -4.8870   44.4395 C.2         1 RX4       0.1825
     28 OAH        27.7498   -5.1259   45.5545 O.2         1 RX4      -0.3966
     29 N          27.1423   -3.6376   44.0043 N.am        1 RX4      -0.2656
     30 CA         27.3520   -2.4280   44.7463 C.3         1 RX4       0.1278
     31 CB         28.1166   -1.3997   43.8741 C.3         1 RX4      -0.0244
     32 C          26.0492   -1.9359   45.1769 C.2         1 RX4       0.1989
     33 O          25.6685   -2.1142   46.3277 O.2         1 RX4      -0.3947
     34 NAD        25.2003   -1.4047   44.3344 N.am        1 RX4      -0.2990
     35 H1         28.8192  -10.5647   40.1026 H           1 RX4       0.0557
     36 H2         29.1050  -11.9610   38.1516 H           1 RX4       0.0599
     37 H3         30.6484  -11.3086   36.3950 H           1 RX4       0.0559
     38 H4         31.9218   -9.2509   36.6024 H           1 RX4       0.0599
     39 H5         31.6691   -7.8559   38.5573 H           1 RX4       0.0557
     40 H6         30.9896   -7.9233   41.1345 H           1 RX4       0.0465
     41 H7         29.4834   -8.7626   41.4797 H           1 RX4       0.0465
     42 H8         28.2369   -7.2167   39.9235 H           1 RX4       0.0788
     43 H9         30.8681   -5.9413   39.6502 H           1 RX4       0.1872
     44 H10        30.8739   -5.7534   36.5855 H           1 RX4       0.0819
     45 H11        32.5092   -5.1781   38.1284 H           1 RX4       0.0478
     46 H12        31.4718   -4.0324   38.9737 H           1 RX4       0.0478
     47 H13        29.5918   -3.1612   37.1272 H           1 RX4       0.1884
     48 H14        28.7789   -2.7320   33.7093 H           1 RX4       0.0467
     49 H15        29.6853   -1.8473   34.9379 H           1 RX4       0.0467
     50 H16        28.0436   -2.4120   35.2871 H           1 RX4       0.0467
     51 H17        28.8792   -6.9616   43.6636 H           1 RX4       0.0493
     52 H18        27.7685   -7.6856   42.5076 H           1 RX4       0.0493
     53 H19        26.2590   -5.6474   42.7724 H           1 RX4       0.0551
     54 H20        25.1521   -6.5207   44.7898 H           1 RX4       0.0257
     55 H21        26.6014   -7.4483   45.2184 H           1 RX4       0.0257
     56 H22        25.7015   -7.8299   43.7451 H           1 RX4       0.0257
     57 H23        26.8104   -3.5348   43.0953 H           1 RX4       0.1883
     58 H24        27.9712   -2.6151   45.6313 H           1 RX4       0.0797
     59 H25        28.2210   -0.4543   44.4087 H           1 RX4       0.0277
     60 H26        27.5959   -1.2166   42.9325 H           1 RX4       0.0277
     61 H27        29.1171   -1.7810   43.6507 H           1 RX4       0.0277
     62 H28        24.2852   -1.2443   44.6151 H           1 RX4       0.1815
     63 H29        25.4497   -1.2743   43.4048 H           1 RX4       0.1815
@<TRIPOS>BOND
     1     1     2  ar
     2     1     6  ar
     3     2     3  ar
     4     3     4  ar
     5     4     5  ar
     6     5     6  ar
     7     6     7   1
     8     7     8   1
     9     8     9   1
    10     8    21   1
    11     9    10  am
    12    10    11   2
    13    10    12   1
    14    12    13   1
    15    12    17   1
    16    13    14   1
    17    14    15  ar
    18    14    16  ar
    19    17    18  am
    20    18    19   1
    21    18    20   2
    22    21    22  ar
    23    21    23  ar
    24    21    24   1
    25    24    25   1
    26    25    26   1
    27    25    27   1
    28    27    28   2
    29    27    29  am
    30    29    30   1
    31    30    31   1
    32    30    32   1
    33    32    33   2
    34    32    34  am
    35     1    35   1
    36     2    36   1
    37     3    37   1
    38     4    38   1
    39     5    39   1
    40     7    40   1
    41     7    41   1
    42     8    42   1
    43     9    43   1
    44    12    44   1
    45    13    45   1
    46    13    46   1
    47    17    47   1
    48    19    48   1
    49    19    49   1
    50    19    50   1
    51    24    51   1
    52    24    52   1
    53    25    53   1
    54    26    54   1
    55    26    55   1
    56    26    56   1
    57    29    57   1
    58    30    58   1
    59    31    59   1
    60    31    60   1
    61    31    61   1
    62    34    62   1
    63    34    63   1
@<TRIPOS>SUBSTRUCTURE
     1  RX4      1

