@<TRIPOS>MOLECULE
2x97_ligand_063
    63    63
SMALL
GAST_HUCK
****
This file was generated by PARSER (from files_GN.cpp)

@<TRIPOS>ATOM
      1 CAP        29.3774   -9.8153   39.0912 C.ar        1 RX4      -0.0602
      2 CAN        30.4528  -10.5105   38.5135 C.ar        1 RX4      -0.0686
      3 CAM        30.5200  -10.6671   37.1189 C.ar        1 RX4      -0.0687
      4 CAO        29.4958  -10.1493   36.3033 C.ar        1 RX4      -0.0686
      5 CAQ        28.4206   -9.4482   36.8826 C.ar        1 RX4      -0.0602
      6 CBC        28.3547   -9.2578   38.2831 C.ar        1 RX4      -0.0393
      7 CAS        27.2438   -8.4708   38.8936 C.3         1 RX4       0.0205
      8 CBG        27.2592   -6.9347   38.5595 C.3         1 RX4       0.1158
      9 NAW        28.5971   -6.4000   38.6179 N.am        1 RX4      -0.2644
     10 CBB        29.3314   -5.9808   37.5833 C.2         1 RX4       0.2049
     11 OAI        28.8128   -5.9176   36.4686 O.2         1 RX4      -0.3944
     12 CBF        30.7676   -5.6855   37.6584 C.3         1 RX4       0.1421
     13 CAR        31.4344   -5.7544   39.0734 C.3         1 RX4       0.0406
     14 CAZ        31.5166   -7.1126   39.6496 C.2         1 RX4       0.0393
     15 OAK        32.3159   -8.0428   39.0686 O.co2       1 RX4      -0.5688
     16 OAG        30.9843   -7.3792   40.8642 O.co2       1 RX4      -0.5688
     17 NAU        31.0217   -4.4841   36.8975 N.am        1 RX4      -0.2643
     18 CAX        31.6107   -3.3293   37.1990 C.2         1 RX4       0.1752
     19 CAA        31.7510   -2.3687   36.1246 C.3         1 RX4       0.0258
     20 OAE        32.0650   -3.0677   38.3068 O.2         1 RX4      -0.3972
     21 P1         26.2216   -6.0420   39.5179 P.3         1 RX4       0.0153
     22 O4         24.9026   -6.6030   39.3350 O.co2       1 RX4      -0.6174
     23 O3         26.0965   -4.7038   38.9941 O.co2       1 RX4      -0.6174
     24 CAT        26.5269   -6.0016   41.1678 C.3         1 RX4       0.0350
     25 CBD        27.4895   -4.8854   41.7113 C.3         1 RX4       0.0618
     26 CAB        26.7445   -3.5508   42.0109 C.3         1 RX4      -0.0438
     27 CBA        28.1905   -5.3565   42.9096 C.2         1 RX4       0.1825
     28 OAH        29.3942   -5.5680   42.8434 O.2         1 RX4      -0.3966
     29 N          27.5071   -5.6124   44.0234 N.am        1 RX4      -0.2656
     30 CA         27.9730   -6.2070   45.2455 C.3         1 RX4       0.1278
     31 CB         28.3319   -7.7018   45.0583 C.3         1 RX4      -0.0244
     32 C          29.0018   -5.4081   45.9099 C.2         1 RX4       0.1989
     33 O          28.6884   -4.5629   46.7368 O.2         1 RX4      -0.3947
     34 NAD        30.2862   -5.5333   45.6489 N.am        1 RX4      -0.2990
     35 H1         29.3558   -9.7013   40.1076 H           1 RX4       0.0557
     36 H2         31.1964  -10.8869   39.1058 H           1 RX4       0.0599
     37 H3         31.3082  -11.1639   36.6976 H           1 RX4       0.0559
     38 H4         29.5364  -10.2797   35.2921 H           1 RX4       0.0599
     39 H5         27.6854   -9.0757   36.2745 H           1 RX4       0.0557
     40 H6         27.2609   -8.6313   39.9733 H           1 RX4       0.0465
     41 H7         26.2993   -8.9057   38.5413 H           1 RX4       0.0465
     42 H8         26.8538   -6.8540   37.5475 H           1 RX4       0.0788
     43 H9         29.0334   -6.4282   39.4844 H           1 RX4       0.1872
     44 H10        31.2503   -6.4749   37.0640 H           1 RX4       0.0819
     45 H11        30.8998   -5.0817   39.7590 H           1 RX4       0.0478
     46 H12        32.4702   -5.3977   38.9939 H           1 RX4       0.0478
     47 H13        30.7214   -4.5450   35.9775 H           1 RX4       0.1884
     48 H14        32.3149   -1.4899   36.4555 H           1 RX4       0.0467
     49 H15        30.7628   -2.0440   35.7830 H           1 RX4       0.0467
     50 H16        32.2863   -2.8282   35.2879 H           1 RX4       0.0467
     51 H17        26.9225   -6.9858   41.4374 H           1 RX4       0.0493
     52 H18        25.5720   -5.9130   41.6908 H           1 RX4       0.0493
     53 H19        28.2384   -4.6647   40.9376 H           1 RX4       0.0551
     54 H20        27.4245   -2.8183   42.4490 H           1 RX4       0.0257
     55 H21        25.9214   -3.7107   42.7108 H           1 RX4       0.0257
     56 H22        26.3330   -3.1276   41.0987 H           1 RX4       0.0257
     57 H23        26.5573   -5.4103   43.9949 H           1 RX4       0.1883
     58 H24        27.0988   -6.2056   45.9049 H           1 RX4       0.0797
     59 H25        28.6205   -8.1436   46.0112 H           1 RX4       0.0277
     60 H26        29.1544   -7.8260   44.3506 H           1 RX4       0.0277
     61 H27        27.4664   -8.2443   44.6758 H           1 RX4       0.0277
     62 H28        30.9338   -4.9709   46.1092 H           1 RX4       0.1815
     63 H29        30.5977   -6.1802   44.9961 H           1 RX4       0.1815
@<TRIPOS>BOND
     1     1     2  ar
     2     1     6  ar
     3     2     3  ar
     4     3     4  ar
     5     4     5  ar
     6     5     6  ar
     7     6     7   1
     8     7     8   1
     9     8     9   1
    10     8    21   1
    11     9    10  am
    12    10    11   2
    13    10    12   1
    14    12    13   1
    15    12    17   1
    16    13    14   1
    17    14    15  ar
    18    14    16  ar
    19    17    18  am
    20    18    19   1
    21    18    20   2
    22    21    22  ar
    23    21    23  ar
    24    21    24   1
    25    24    25   1
    26    25    26   1
    27    25    27   1
    28    27    28   2
    29    27    29  am
    30    29    30   1
    31    30    31   1
    32    30    32   1
    33    32    33   2
    34    32    34  am
    35     1    35   1
    36     2    36   1
    37     3    37   1
    38     4    38   1
    39     5    39   1
    40     7    40   1
    41     7    41   1
    42     8    42   1
    43     9    43   1
    44    12    44   1
    45    13    45   1
    46    13    46   1
    47    17    47   1
    48    19    48   1
    49    19    49   1
    50    19    50   1
    51    24    51   1
    52    24    52   1
    53    25    53   1
    54    26    54   1
    55    26    55   1
    56    26    56   1
    57    29    57   1
    58    30    58   1
    59    31    59   1
    60    31    60   1
    61    31    61   1
    62    34    62   1
    63    34    63   1
@<TRIPOS>SUBSTRUCTURE
     1  RX4      1

