@<TRIPOS>MOLECULE
2x97_ligand_031
    63    63
SMALL
GAST_HUCK
****
This file was generated by PARSER (from files_GN.cpp)

@<TRIPOS>ATOM
      1 CAP        30.0145   -9.5852   44.2628 C.ar        1 RX4      -0.0602
      2 CAN        29.2795  -10.2476   45.2634 C.ar        1 RX4      -0.0686
      3 CAM        27.8794  -10.1176   45.3099 C.ar        1 RX4      -0.0687
      4 CAO        27.2129   -9.3383   44.3475 C.ar        1 RX4      -0.0686
      5 CAQ        27.9486   -8.6880   43.3377 C.ar        1 RX4      -0.0602
      6 CBC        29.3597   -8.7937   43.2890 C.ar        1 RX4      -0.0393
      7 CAS        30.1203   -8.1398   42.1883 C.3         1 RX4       0.0205
      8 CBG        29.7975   -6.6088   41.9918 C.3         1 RX4       0.1158
      9 NAW        29.8785   -6.2809   40.5896 N.am        1 RX4      -0.2644
     10 CBB        29.0878   -6.7700   39.6293 C.2         1 RX4       0.2049
     11 OAI        28.0776   -7.4018   39.9350 O.2         1 RX4      -0.3944
     12 CBF        29.4175   -6.6824   38.2072 C.3         1 RX4       0.1421
     13 CAR        30.8173   -6.1106   37.8312 C.3         1 RX4       0.0406
     14 CAZ        31.9473   -6.8382   38.4376 C.2         1 RX4       0.0393
     15 OAK        31.9972   -8.1949   38.4346 O.co2       1 RX4      -0.5688
     16 OAG        32.9842   -6.1677   38.9731 O.co2       1 RX4      -0.5688
     17 NAU        28.3802   -6.0495   37.4453 N.am        1 RX4      -0.2643
     18 CAX        27.6001   -5.0373   37.7864 C.2         1 RX4       0.1752
     19 CAA        26.6114   -4.5694   36.8356 C.3         1 RX4       0.0258
     20 OAE        27.6748   -4.4992   38.8828 O.2         1 RX4      -0.3972
     21 P1         30.7625   -5.5792   42.9123 P.3         1 RX4       0.0153
     22 O4         31.8756   -5.0971   42.1260 O.co2       1 RX4      -0.6174
     23 O3         31.4086   -6.2779   43.9977 O.co2       1 RX4      -0.6174
     24 CAT        30.0139   -4.2287   43.5725 C.3         1 RX4       0.0350
     25 CBD        28.6228   -4.4070   44.2707 C.3         1 RX4       0.0618
     26 CAB        28.5552   -5.5536   45.3367 C.3         1 RX4      -0.0438
     27 CBA        28.1794   -3.1172   44.8162 C.2         1 RX4       0.1825
     28 OAH        27.9213   -3.0034   46.0125 O.2         1 RX4      -0.3966
     29 N          28.0179   -2.0724   44.0085 N.am        1 RX4      -0.2656
     30 CA         27.4754   -0.7908   44.3790 C.3         1 RX4       0.1278
     31 CB         27.4485    0.1158   43.1161 C.3         1 RX4      -0.0244
     32 C          26.1994   -0.9649   45.0714 C.2         1 RX4       0.1989
     33 O          26.1798   -1.4424   46.1995 O.2         1 RX4      -0.3947
     34 NAD        25.0343   -0.6907   44.5319 N.am        1 RX4      -0.2990
     35 H1         31.0320   -9.6904   44.2432 H           1 RX4       0.0557
     36 H2         29.7618  -10.8322   45.9453 H           1 RX4       0.0599
     37 H3         27.3462  -10.5976   46.0326 H           1 RX4       0.0559
     38 H4         26.1965   -9.2528   44.3722 H           1 RX4       0.0599
     39 H5         27.4467   -8.1422   42.6323 H           1 RX4       0.0557
     40 H6         29.8713   -8.7093   41.2850 H           1 RX4       0.0465
     41 H7         31.2020   -8.2723   42.3155 H           1 RX4       0.0465
     42 H8         28.7716   -6.4103   42.3043 H           1 RX4       0.0788
     43 H9         30.6309   -5.7321   40.3148 H           1 RX4       0.1872
     44 H10        29.4134   -7.7121   37.8458 H           1 RX4       0.0819
     45 H11        30.8638   -5.0542   38.1118 H           1 RX4       0.0478
     46 H12        30.9394   -6.1702   36.7471 H           1 RX4       0.0478
     47 H13        28.2372   -6.4103   36.5547 H           1 RX4       0.1884
     48 H14        25.9643   -3.8001   37.2707 H           1 RX4       0.0467
     49 H15        25.9811   -5.4030   36.5108 H           1 RX4       0.0467
     50 H16        27.1132   -4.1452   35.9614 H           1 RX4       0.0467
     51 H17        29.8978   -3.5157   42.7474 H           1 RX4       0.0493
     52 H18        30.7157   -3.7866   44.2908 H           1 RX4       0.0493
     53 H19        27.8899   -4.6700   43.4994 H           1 RX4       0.0551
     54 H20        27.5675   -5.5783   45.8026 H           1 RX4       0.0257
     55 H21        29.3150   -5.4006   46.1066 H           1 RX4       0.0257
     56 H22        28.7168   -6.5300   44.8721 H           1 RX4       0.0257
     57 H23        28.2859   -2.1767   43.0783 H           1 RX4       0.1883
     58 H24        28.1557   -0.2946   45.0708 H           1 RX4       0.0797
     59 H25        27.0526    1.1017   43.3649 H           1 RX4       0.0277
     60 H26        26.8335   -0.3138   42.3307 H           1 RX4       0.0277
     61 H27        28.4546    0.2498   42.7132 H           1 RX4       0.0277
     62 H28        24.2182   -0.9122   45.0105 H           1 RX4       0.1815
     63 H29        24.9828   -0.3670   43.6239 H           1 RX4       0.1815
@<TRIPOS>BOND
     1     1     2  ar
     2     1     6  ar
     3     2     3  ar
     4     3     4  ar
     5     4     5  ar
     6     5     6  ar
     7     6     7   1
     8     7     8   1
     9     8     9   1
    10     8    21   1
    11     9    10  am
    12    10    11   2
    13    10    12   1
    14    12    13   1
    15    12    17   1
    16    13    14   1
    17    14    15  ar
    18    14    16  ar
    19    17    18  am
    20    18    19   1
    21    18    20   2
    22    21    22  ar
    23    21    23  ar
    24    21    24   1
    25    24    25   1
    26    25    26   1
    27    25    27   1
    28    27    28   2
    29    27    29  am
    30    29    30   1
    31    30    31   1
    32    30    32   1
    33    32    33   2
    34    32    34  am
    35     1    35   1
    36     2    36   1
    37     3    37   1
    38     4    38   1
    39     5    39   1
    40     7    40   1
    41     7    41   1
    42     8    42   1
    43     9    43   1
    44    12    44   1
    45    13    45   1
    46    13    46   1
    47    17    47   1
    48    19    48   1
    49    19    49   1
    50    19    50   1
    51    24    51   1
    52    24    52   1
    53    25    53   1
    54    26    54   1
    55    26    55   1
    56    26    56   1
    57    29    57   1
    58    30    58   1
    59    31    59   1
    60    31    60   1
    61    31    61   1
    62    34    62   1
    63    34    63   1
@<TRIPOS>SUBSTRUCTURE
     1  RX4      1

