@<TRIPOS>MOLECULE
2x97_ligand_054
    63    63
SMALL
GAST_HUCK
****
This file was generated by PARSER (from files_GN.cpp)

@<TRIPOS>ATOM
      1 CAP        27.6954   -9.0094   37.2603 C.ar        1 RX4      -0.0602
      2 CAN        28.3151   -9.7356   36.2293 C.ar        1 RX4      -0.0686
      3 CAM        29.5710  -10.3318   36.4419 C.ar        1 RX4      -0.0687
      4 CAO        30.2080  -10.2019   37.6889 C.ar        1 RX4      -0.0686
      5 CAQ        29.5876   -9.4767   38.7229 C.ar        1 RX4      -0.0602
      6 CBC        28.3405   -8.8386   38.5071 C.ar        1 RX4      -0.0393
      7 CAS        27.7092   -8.0112   39.5755 C.3         1 RX4       0.0205
      8 CBG        27.5640   -6.4831   39.2401 C.3         1 RX4       0.1158
      9 NAW        28.4815   -5.8975   38.3022 N.am        1 RX4      -0.2644
     10 CBB        29.8135   -5.8938   38.2900 C.2         1 RX4       0.2049
     11 OAI        30.4369   -6.6102   39.0666 O.2         1 RX4      -0.3944
     12 CBF        30.5680   -5.0767   37.3387 C.3         1 RX4       0.1421
     13 CAR        31.7558   -4.3434   38.0420 C.3         1 RX4       0.0406
     14 CAZ        32.5245   -3.3737   37.2321 C.2         1 RX4       0.0393
     15 OAK        32.3001   -3.1453   35.9164 O.co2       1 RX4      -0.5688
     16 OAG        33.4593   -2.6252   37.8712 O.co2       1 RX4      -0.5688
     17 NAU        29.7426   -4.0688   36.7218 N.am        1 RX4      -0.2643
     18 CAX        29.2867   -4.0479   35.4795 C.2         1 RX4       0.1752
     19 CAA        28.5090   -2.9027   35.0572 C.3         1 RX4       0.0258
     20 OAE        29.5392   -4.9364   34.6790 O.2         1 RX4      -0.3972
     21 P1         27.3942   -5.4865   40.5825 P.3         1 RX4       0.0153
     22 O4         26.3437   -5.9937   41.4261 O.co2       1 RX4      -0.6174
     23 O3         26.8631   -4.2354   40.1001 O.co2       1 RX4      -0.6174
     24 CAT        28.7392   -5.0983   41.5152 C.3         1 RX4       0.0350
     25 CBD        29.4767   -6.2319   42.3119 C.3         1 RX4       0.0618
     26 CAB        30.7557   -5.6875   43.0085 C.3         1 RX4      -0.0438
     27 CBA        28.6206   -6.9177   43.2814 C.2         1 RX4       0.1825
     28 OAH        28.4477   -8.1207   43.1538 O.2         1 RX4      -0.3966
     29 N          28.0386   -6.2369   44.2625 N.am        1 RX4      -0.2656
     30 CA         27.0806   -6.7163   45.2123 C.3         1 RX4       0.1278
     31 CB         25.7407   -7.0801   44.5132 C.3         1 RX4      -0.0244
     32 C          27.6132   -7.7625   46.0824 C.2         1 RX4       0.1989
     33 O          27.3782   -8.9466   45.8897 O.2         1 RX4      -0.3947
     34 NAD        28.3766   -7.4680   47.1118 N.am        1 RX4      -0.2990
     35 H1         26.7855   -8.5765   37.0850 H           1 RX4       0.0557
     36 H2         27.8554   -9.8388   35.3238 H           1 RX4       0.0599
     37 H3         30.0299  -10.8523   35.6872 H           1 RX4       0.0559
     38 H4         31.1264  -10.6218   37.8435 H           1 RX4       0.0599
     39 H5         30.0737   -9.3776   39.6153 H           1 RX4       0.0557
     40 H6         28.2636   -8.1426   40.5043 H           1 RX4       0.0465
     41 H7         26.7095   -8.4235   39.7745 H           1 RX4       0.0465
     42 H8         26.6030   -6.4083   38.7240 H           1 RX4       0.0788
     43 H9         28.0606   -5.3842   37.5939 H           1 RX4       0.1872
     44 H10        30.9975   -5.7519   36.5902 H           1 RX4       0.0819
     45 H11        32.4706   -5.0906   38.3995 H           1 RX4       0.0478
     46 H12        31.3737   -3.8051   38.9150 H           1 RX4       0.0478
     47 H13        29.4882   -3.3210   37.2810 H           1 RX4       0.1884
     48 H14        28.1681   -3.0006   34.0223 H           1 RX4       0.0467
     49 H15        29.1151   -1.9973   35.1343 H           1 RX4       0.0467
     50 H16        27.6323   -2.7913   35.6982 H           1 RX4       0.0467
     51 H17        28.4376   -4.3179   42.2243 H           1 RX4       0.0493
     52 H18        29.4634   -4.6379   40.8347 H           1 RX4       0.0493
     53 H19        29.8463   -6.9513   41.5723 H           1 RX4       0.0551
     54 H20        31.2883   -6.4987   43.5065 H           1 RX4       0.0257
     55 H21        30.5065   -4.9266   43.7475 H           1 RX4       0.0257
     56 H22        31.4328   -5.2462   42.2746 H           1 RX4       0.0257
     57 H23        28.2470   -5.2959   44.3099 H           1 RX4       0.1883
     58 H24        26.8467   -5.8668   45.8501 H           1 RX4       0.0797
     59 H25        24.9959   -7.4178   45.2363 H           1 RX4       0.0277
     60 H26        25.8778   -7.8756   43.7763 H           1 RX4       0.0277
     61 H27        25.3340   -6.2041   44.0006 H           1 RX4       0.0277
     62 H28        28.7065   -8.1733   47.6982 H           1 RX4       0.1815
     63 H29        28.5934   -6.5426   47.3163 H           1 RX4       0.1815
@<TRIPOS>BOND
     1     1     2  ar
     2     1     6  ar
     3     2     3  ar
     4     3     4  ar
     5     4     5  ar
     6     5     6  ar
     7     6     7   1
     8     7     8   1
     9     8     9   1
    10     8    21   1
    11     9    10  am
    12    10    11   2
    13    10    12   1
    14    12    13   1
    15    12    17   1
    16    13    14   1
    17    14    15  ar
    18    14    16  ar
    19    17    18  am
    20    18    19   1
    21    18    20   2
    22    21    22  ar
    23    21    23  ar
    24    21    24   1
    25    24    25   1
    26    25    26   1
    27    25    27   1
    28    27    28   2
    29    27    29  am
    30    29    30   1
    31    30    31   1
    32    30    32   1
    33    32    33   2
    34    32    34  am
    35     1    35   1
    36     2    36   1
    37     3    37   1
    38     4    38   1
    39     5    39   1
    40     7    40   1
    41     7    41   1
    42     8    42   1
    43     9    43   1
    44    12    44   1
    45    13    45   1
    46    13    46   1
    47    17    47   1
    48    19    48   1
    49    19    49   1
    50    19    50   1
    51    24    51   1
    52    24    52   1
    53    25    53   1
    54    26    54   1
    55    26    55   1
    56    26    56   1
    57    29    57   1
    58    30    58   1
    59    31    59   1
    60    31    60   1
    61    31    61   1
    62    34    62   1
    63    34    63   1
@<TRIPOS>SUBSTRUCTURE
     1  RX4      1

