@<TRIPOS>MOLECULE
2x97_ligand_012
    63    63
SMALL
GAST_HUCK
****
This file was generated by PARSER (from files_GN.cpp)

@<TRIPOS>ATOM
      1 CAP        27.7399   -9.7176   42.8682 C.ar        1 RX4      -0.0602
      2 CAN        27.0432  -10.7080   43.5852 C.ar        1 RX4      -0.0686
      3 CAM        26.0872  -10.3396   44.5519 C.ar        1 RX4      -0.0687
      4 CAO        25.8400   -8.9791   44.8071 C.ar        1 RX4      -0.0686
      5 CAQ        26.5431   -7.9917   44.0942 C.ar        1 RX4      -0.0602
      6 CBC        27.4978   -8.3436   43.1072 C.ar        1 RX4      -0.0393
      7 CAS        28.2331   -7.2691   42.3789 C.3         1 RX4       0.0205
      8 CBG        27.3186   -6.3856   41.4571 C.3         1 RX4       0.1158
      9 NAW        27.2940   -6.8663   40.0869 N.am        1 RX4      -0.2644
     10 CBB        28.2458   -6.8195   39.1523 C.2         1 RX4       0.2049
     11 OAI        29.3370   -6.3257   39.4112 O.2         1 RX4      -0.3944
     12 CBF        28.0424   -7.2779   37.7750 C.3         1 RX4       0.1421
     13 CAR        26.6750   -7.9634   37.4415 C.3         1 RX4       0.0406
     14 CAZ        25.5472   -7.0267   37.2377 C.2         1 RX4       0.0393
     15 OAK        24.5413   -7.3622   36.4012 O.co2       1 RX4      -0.5688
     16 OAG        25.3620   -5.9462   38.0339 O.co2       1 RX4      -0.5688
     17 NAU        29.1139   -8.1082   37.2862 N.am        1 RX4      -0.2643
     18 CAX        29.7732   -9.0571   37.9364 C.2         1 RX4       0.1752
     19 CAA        30.8438   -9.7276   37.2512 C.3         1 RX4       0.0258
     20 OAE        29.5414   -9.3308   39.1050 O.2         1 RX4      -0.3972
     21 P1         27.5794   -4.7276   41.5609 P.3         1 RX4       0.0153
     22 O4         26.9044   -4.1553   40.4165 O.co2       1 RX4      -0.6174
     23 O3         28.9569   -4.3836   41.3186 O.co2       1 RX4      -0.6174
     24 CAT        27.0084   -3.8442   42.8610 C.3         1 RX4       0.0350
     25 CBD        27.8992   -3.5791   44.1301 C.3         1 RX4       0.0618
     26 CAB        29.4240   -3.3558   43.8940 C.3         1 RX4      -0.0438
     27 CBA        27.3753   -2.4230   44.8659 C.2         1 RX4       0.1825
     28 OAH        26.9018   -2.5717   45.9851 O.2         1 RX4      -0.3966
     29 N          27.4653   -1.2072   44.3364 N.am        1 RX4      -0.2656
     30 CA         27.0451    0.0383   44.9231 C.3         1 RX4       0.1278
     31 CB         27.1590    1.1688   43.8683 C.3         1 RX4      -0.0244
     32 C          25.6891   -0.0463   45.4474 C.2         1 RX4       0.1989
     33 O          25.4712    0.1066   46.6401 O.2         1 RX4      -0.3947
     34 NAD        24.6809   -0.3822   44.6750 N.am        1 RX4      -0.2990
     35 H1         28.4249  -10.0081   42.1680 H           1 RX4       0.0557
     36 H2         27.2243  -11.6972   43.4073 H           1 RX4       0.0599
     37 H3         25.5688  -11.0601   45.0658 H           1 RX4       0.0559
     38 H4         25.1452   -8.7123   45.5098 H           1 RX4       0.0599
     39 H5         26.3569   -7.0089   44.3069 H           1 RX4       0.0557
     40 H6         29.0380   -7.6997   41.7778 H           1 RX4       0.0465
     41 H7         28.7262   -6.6563   43.1372 H           1 RX4       0.0465
     42 H8         26.2855   -6.5043   41.7977 H           1 RX4       0.0788
     43 H9         26.4497   -7.2560   39.8090 H           1 RX4       0.1872
     44 H10        28.1013   -6.3776   37.1495 H           1 RX4       0.0819
     45 H11        26.4041   -8.6799   38.2206 H           1 RX4       0.0478
     46 H12        26.7805   -8.5353   36.5155 H           1 RX4       0.0478
     47 H13        29.3667   -7.9732   36.3578 H           1 RX4       0.1884
     48 H14        31.3617  -10.4242   37.9123 H           1 RX4       0.0467
     49 H15        31.5648   -8.9905   36.8876 H           1 RX4       0.0467
     50 H16        30.4346  -10.2843   36.4037 H           1 RX4       0.0467
     51 H17        26.0860   -4.3329   43.1850 H           1 RX4       0.0493
     52 H18        26.7214   -2.8804   42.4361 H           1 RX4       0.0493
     53 H19        27.8108   -4.4674   44.7643 H           1 RX4       0.0551
     54 H20        29.9143   -3.0092   44.8055 H           1 RX4       0.0257
     55 H21        29.5992   -2.6166   43.1079 H           1 RX4       0.0257
     56 H22        29.9108   -4.2896   43.6101 H           1 RX4       0.0257
     57 H23        27.8590   -1.1522   43.4520 H           1 RX4       0.1883
     58 H24        27.7411    0.2832   45.7324 H           1 RX4       0.0797
     59 H25        26.8671    2.1269   44.3072 H           1 RX4       0.0277
     60 H26        26.5199    0.9671   43.0051 H           1 RX4       0.0277
     61 H27        28.1936    1.2498   43.5241 H           1 RX4       0.0277
     62 H28        23.8243   -0.6101   45.0662 H           1 RX4       0.1815
     63 H29        24.8202   -0.5165   43.7245 H           1 RX4       0.1815
@<TRIPOS>BOND
     1     1     2  ar
     2     1     6  ar
     3     2     3  ar
     4     3     4  ar
     5     4     5  ar
     6     5     6  ar
     7     6     7   1
     8     7     8   1
     9     8     9   1
    10     8    21   1
    11     9    10  am
    12    10    11   2
    13    10    12   1
    14    12    13   1
    15    12    17   1
    16    13    14   1
    17    14    15  ar
    18    14    16  ar
    19    17    18  am
    20    18    19   1
    21    18    20   2
    22    21    22  ar
    23    21    23  ar
    24    21    24   1
    25    24    25   1
    26    25    26   1
    27    25    27   1
    28    27    28   2
    29    27    29  am
    30    29    30   1
    31    30    31   1
    32    30    32   1
    33    32    33   2
    34    32    34  am
    35     1    35   1
    36     2    36   1
    37     3    37   1
    38     4    38   1
    39     5    39   1
    40     7    40   1
    41     7    41   1
    42     8    42   1
    43     9    43   1
    44    12    44   1
    45    13    45   1
    46    13    46   1
    47    17    47   1
    48    19    48   1
    49    19    49   1
    50    19    50   1
    51    24    51   1
    52    24    52   1
    53    25    53   1
    54    26    54   1
    55    26    55   1
    56    26    56   1
    57    29    57   1
    58    30    58   1
    59    31    59   1
    60    31    60   1
    61    31    61   1
    62    34    62   1
    63    34    63   1
@<TRIPOS>SUBSTRUCTURE
     1  RX4      1

