@<TRIPOS>MOLECULE
2x97_ligand_076
    63    63
SMALL
GAST_HUCK
****
This file was generated by PARSER (from files_GN.cpp)

@<TRIPOS>ATOM
      1 CAP        31.0318   -5.5773   40.4436 C.ar        1 RX4      -0.0602
      2 CAN        31.9533   -5.9791   39.4633 C.ar        1 RX4      -0.0686
      3 CAM        32.3641   -7.3204   39.3895 C.ar        1 RX4      -0.0687
      4 CAO        31.8605   -8.2594   40.3066 C.ar        1 RX4      -0.0686
      5 CAQ        30.9305   -7.8603   41.2836 C.ar        1 RX4      -0.0602
      6 CBC        30.4958   -6.5142   41.3609 C.ar        1 RX4      -0.0393
      7 CAS        29.4352   -6.0949   42.3237 C.3         1 RX4       0.0205
      8 CBG        27.9959   -6.5979   41.9580 C.3         1 RX4       0.1158
      9 NAW        27.8067   -6.7308   40.5273 N.am        1 RX4      -0.2644
     10 CBB        27.5161   -7.8474   39.8597 C.2         1 RX4       0.2049
     11 OAI        27.4516   -8.9226   40.4438 O.2         1 RX4      -0.3944
     12 CBF        27.2672   -7.8625   38.4185 C.3         1 RX4       0.1421
     13 CAR        28.4559   -8.5011   37.6312 C.3         1 RX4       0.0406
     14 CAZ        28.5077   -9.9750   37.6999 C.2         1 RX4       0.0393
     15 OAK        27.5470  -10.7234   37.1079 O.co2       1 RX4      -0.5688
     16 OAG        29.5531  -10.5990   38.2921 O.co2       1 RX4      -0.5688
     17 NAU        27.0024   -6.5544   37.8815 N.am        1 RX4      -0.2643
     18 CAX        25.8341   -5.9233   37.8905 C.2         1 RX4       0.1752
     19 CAA        25.7204   -4.6707   37.1837 C.3         1 RX4       0.0258
     20 OAE        24.8428   -6.4116   38.4228 O.2         1 RX4      -0.3972
     21 P1         26.7209   -5.6905   42.5992 P.3         1 RX4       0.0153
     22 O4         26.1849   -6.4058   43.7306 O.co2       1 RX4      -0.6174
     23 O3         25.6053   -5.7601   41.6830 O.co2       1 RX4      -0.6174
     24 CAT        26.8807   -4.0641   43.0176 C.3         1 RX4       0.0350
     25 CBD        26.9361   -3.7160   44.5508 C.3         1 RX4       0.0618
     26 CAB        28.1546   -4.3475   45.2914 C.3         1 RX4      -0.0438
     27 CBA        26.8391   -2.2660   44.7590 C.2         1 RX4       0.1825
     28 OAH        27.7611   -1.6377   45.2685 O.2         1 RX4      -0.3966
     29 N          25.7170   -1.6345   44.4174 N.am        1 RX4      -0.2656
     30 CA         25.3441   -0.2763   44.7131 C.3         1 RX4       0.1278
     31 CB         24.8479   -0.2162   46.1811 C.3         1 RX4      -0.0244
     32 C          26.3551    0.7212   44.3708 C.2         1 RX4       0.1989
     33 O          26.8368    1.4823   45.1994 O.2         1 RX4      -0.3947
     34 NAD        26.8039    0.8308   43.1394 N.am        1 RX4      -0.2990
     35 H1         30.7338   -4.6025   40.4712 H           1 RX4       0.0557
     36 H2         32.3136   -5.2986   38.7933 H           1 RX4       0.0599
     37 H3         33.0329   -7.6113   38.6690 H           1 RX4       0.0559
     38 H4         32.1684   -9.2302   40.2482 H           1 RX4       0.0599
     39 H5         30.5670   -8.5583   41.9330 H           1 RX4       0.0557
     40 H6         29.4417   -5.0032   42.4102 H           1 RX4       0.0465
     41 H7         29.7094   -6.4679   43.3162 H           1 RX4       0.0465
     42 H8         27.9168   -7.5884   42.4210 H           1 RX4       0.0788
     43 H9         27.8782   -5.9157   40.0064 H           1 RX4       0.1872
     44 H10        26.3751   -8.4778   38.2252 H           1 RX4       0.0819
     45 H11        29.3986   -8.0813   37.9946 H           1 RX4       0.0478
     46 H12        28.3745   -8.2424   36.5716 H           1 RX4       0.0478
     47 H13        27.7343   -6.1082   37.4255 H           1 RX4       0.1884
     48 H14        24.7112   -4.2561   37.2571 H           1 RX4       0.0467
     49 H15        25.9523   -4.8277   36.1278 H           1 RX4       0.0467
     50 H16        26.4257   -3.9448   37.5939 H           1 RX4       0.0467
     51 H17        26.0151   -3.5413   42.5991 H           1 RX4       0.0493
     52 H18        27.7496   -3.6310   42.5097 H           1 RX4       0.0493
     53 H19        26.0417   -4.1410   45.0256 H           1 RX4       0.0551
     54 H20        28.1444   -4.0735   46.3502 H           1 RX4       0.0257
     55 H21        29.0841   -3.9940   44.8440 H           1 RX4       0.0257
     56 H22        28.1285   -5.4362   45.2377 H           1 RX4       0.0257
     57 H23        25.0170   -2.1911   44.0339 H           1 RX4       0.1883
     58 H24        24.4712   -0.0636   44.0900 H           1 RX4       0.0797
     59 H25        24.4328    0.7688   46.4028 H           1 RX4       0.0277
     60 H26        25.6722   -0.4157   46.8713 H           1 RX4       0.0277
     61 H27        24.0675   -0.9626   46.3433 H           1 RX4       0.0277
     62 H28        27.4783    1.4961   42.9260 H           1 RX4       0.1815
     63 H29        26.4539    0.2566   42.4438 H           1 RX4       0.1815
@<TRIPOS>BOND
     1     1     2  ar
     2     1     6  ar
     3     2     3  ar
     4     3     4  ar
     5     4     5  ar
     6     5     6  ar
     7     6     7   1
     8     7     8   1
     9     8     9   1
    10     8    21   1
    11     9    10  am
    12    10    11   2
    13    10    12   1
    14    12    13   1
    15    12    17   1
    16    13    14   1
    17    14    15  ar
    18    14    16  ar
    19    17    18  am
    20    18    19   1
    21    18    20   2
    22    21    22  ar
    23    21    23  ar
    24    21    24   1
    25    24    25   1
    26    25    26   1
    27    25    27   1
    28    27    28   2
    29    27    29  am
    30    29    30   1
    31    30    31   1
    32    30    32   1
    33    32    33   2
    34    32    34  am
    35     1    35   1
    36     2    36   1
    37     3    37   1
    38     4    38   1
    39     5    39   1
    40     7    40   1
    41     7    41   1
    42     8    42   1
    43     9    43   1
    44    12    44   1
    45    13    45   1
    46    13    46   1
    47    17    47   1
    48    19    48   1
    49    19    49   1
    50    19    50   1
    51    24    51   1
    52    24    52   1
    53    25    53   1
    54    26    54   1
    55    26    55   1
    56    26    56   1
    57    29    57   1
    58    30    58   1
    59    31    59   1
    60    31    60   1
    61    31    61   1
    62    34    62   1
    63    34    63   1
@<TRIPOS>SUBSTRUCTURE
     1  RX4      1

