@<TRIPOS>MOLECULE
2x97_ligand_070
    63    63
SMALL
GAST_HUCK
****
This file was generated by PARSER (from files_GN.cpp)

@<TRIPOS>ATOM
      1 CAP        31.2056  -10.1927   36.2615 C.ar        1 RX4      -0.0602
      2 CAN        30.9656  -10.6836   34.9637 C.ar        1 RX4      -0.0686
      3 CAM        29.7260  -11.2691   34.6472 C.ar        1 RX4      -0.0687
      4 CAO        28.7300  -11.3731   35.6339 C.ar        1 RX4      -0.0686
      5 CAQ        28.9699  -10.8796   36.9294 C.ar        1 RX4      -0.0602
      6 CBC        30.2060  -10.2704   37.2610 C.ar        1 RX4      -0.0393
      7 CAS        30.4314   -9.7375   38.6365 C.3         1 RX4       0.0205
      8 CBG        29.6250   -8.4265   38.9177 C.3         1 RX4       0.1158
      9 NAW        30.2022   -7.3475   38.1497 N.am        1 RX4      -0.2644
     10 CBB        29.6584   -6.1623   37.8823 C.2         1 RX4       0.2049
     11 OAI        28.5368   -5.8991   38.3028 O.2         1 RX4      -0.3944
     12 CBF        30.4065   -5.1641   37.1131 C.3         1 RX4       0.1421
     13 CAR        31.5430   -4.5139   37.9653 C.3         1 RX4       0.0406
     14 CAZ        32.3110   -3.4363   37.2986 C.2         1 RX4       0.0393
     15 OAK        33.1577   -2.6677   38.0185 O.co2       1 RX4      -0.5688
     16 OAG        32.1485   -3.1237   35.9924 O.co2       1 RX4      -0.5688
     17 NAU        29.5339   -4.1210   36.6370 N.am        1 RX4      -0.2643
     18 CAX        28.8688   -4.0930   35.4912 C.2         1 RX4       0.1752
     19 CAA        27.9811   -2.9808   35.2425 C.3         1 RX4       0.0258
     20 OAE        28.9687   -4.9878   34.6612 O.2         1 RX4      -0.3972
     21 P1         29.4918   -8.0558   40.5569 P.3         1 RX4       0.0153
     22 O4         29.3368   -9.2500   41.3506 O.co2       1 RX4      -0.6174
     23 O3         28.2225   -7.3952   40.7227 O.co2       1 RX4      -0.6174
     24 CAT        30.7195   -7.1171   41.2059 C.3         1 RX4       0.0350
     25 CBD        30.5342   -6.5253   42.6461 C.3         1 RX4       0.0618
     26 CAB        29.4976   -5.3621   42.7157 C.3         1 RX4      -0.0438
     27 CBA        30.3716   -7.5588   43.6708 C.2         1 RX4       0.1825
     28 OAH        31.3614   -8.2142   43.9721 O.2         1 RX4      -0.3966
     29 N          29.1949   -7.8168   44.2396 N.am        1 RX4      -0.2656
     30 CA         28.9128   -8.8142   45.2357 C.3         1 RX4       0.1278
     31 CB         28.9677   -8.1799   46.6490 C.3         1 RX4      -0.0244
     32 C          27.6239   -9.4336   44.9518 C.2         1 RX4       0.1989
     33 O          27.5528  -10.6241   44.6836 O.2         1 RX4      -0.3947
     34 NAD        26.4958   -8.7557   44.9706 N.am        1 RX4      -0.2990
     35 H1         32.1107   -9.7624   36.4680 H           1 RX4       0.0557
     36 H2         31.6880  -10.6059   34.2440 H           1 RX4       0.0599
     37 H3         29.5504  -11.6199   33.7033 H           1 RX4       0.0559
     38 H4         27.8308  -11.8068   35.4086 H           1 RX4       0.0599
     39 H5         28.2338  -10.9714   37.6351 H           1 RX4       0.0557
     40 H6         31.4922   -9.5412   38.8093 H           1 RX4       0.0465
     41 H7         30.1501  -10.5357   39.3290 H           1 RX4       0.0465
     42 H8         28.6069   -8.5932   38.5539 H           1 RX4       0.0788
     43 H9         31.0801   -7.5100   37.7696 H           1 RX4       0.1872
     44 H10        30.8763   -5.6669   36.2603 H           1 RX4       0.0819
     45 H11        32.2571   -5.2821   38.2737 H           1 RX4       0.0478
     46 H12        31.1047   -4.0937   38.8738 H           1 RX4       0.0478
     47 H13        29.4054   -3.3661   37.2326 H           1 RX4       0.1884
     48 H14        27.4972   -3.0619   34.2661 H           1 RX4       0.0467
     49 H15        28.5389   -2.0425   35.2769 H           1 RX4       0.0467
     50 H16        27.2048   -2.9586   36.0092 H           1 RX4       0.0467
     51 H17        30.9006   -6.2812   40.5280 H           1 RX4       0.0493
     52 H18        31.6254   -7.7299   41.1872 H           1 RX4       0.0493
     53 H19        31.4786   -6.0231   42.8749 H           1 RX4       0.0551
     54 H20        29.5003   -4.9138   43.7106 H           1 RX4       0.0257
     55 H21        28.4826   -5.7007   42.5215 H           1 RX4       0.0257
     56 H22        29.7426   -4.5819   41.9874 H           1 RX4       0.0257
     57 H23        28.4450   -7.2634   43.9729 H           1 RX4       0.1883
     58 H24        29.6808   -9.5962   45.2082 H           1 RX4       0.0797
     59 H25        28.7230   -8.9242   47.4095 H           1 RX4       0.0277
     60 H26        28.2680   -7.3458   46.7340 H           1 RX4       0.0277
     61 H27        29.9749   -7.8070   46.8472 H           1 RX4       0.0277
     62 H28        25.6580   -9.2038   44.7716 H           1 RX4       0.1815
     63 H29        26.4944   -7.8117   45.1905 H           1 RX4       0.1815
@<TRIPOS>BOND
     1     1     2  ar
     2     1     6  ar
     3     2     3  ar
     4     3     4  ar
     5     4     5  ar
     6     5     6  ar
     7     6     7   1
     8     7     8   1
     9     8     9   1
    10     8    21   1
    11     9    10  am
    12    10    11   2
    13    10    12   1
    14    12    13   1
    15    12    17   1
    16    13    14   1
    17    14    15  ar
    18    14    16  ar
    19    17    18  am
    20    18    19   1
    21    18    20   2
    22    21    22  ar
    23    21    23  ar
    24    21    24   1
    25    24    25   1
    26    25    26   1
    27    25    27   1
    28    27    28   2
    29    27    29  am
    30    29    30   1
    31    30    31   1
    32    30    32   1
    33    32    33   2
    34    32    34  am
    35     1    35   1
    36     2    36   1
    37     3    37   1
    38     4    38   1
    39     5    39   1
    40     7    40   1
    41     7    41   1
    42     8    42   1
    43     9    43   1
    44    12    44   1
    45    13    45   1
    46    13    46   1
    47    17    47   1
    48    19    48   1
    49    19    49   1
    50    19    50   1
    51    24    51   1
    52    24    52   1
    53    25    53   1
    54    26    54   1
    55    26    55   1
    56    26    56   1
    57    29    57   1
    58    30    58   1
    59    31    59   1
    60    31    60   1
    61    31    61   1
    62    34    62   1
    63    34    63   1
@<TRIPOS>SUBSTRUCTURE
     1  RX4      1

