@<TRIPOS>MOLECULE
2x97_ligand_007
    63    63
SMALL
GAST_HUCK
****
This file was generated by PARSER (from files_GN.cpp)

@<TRIPOS>ATOM
      1 CAP        29.3491   -9.1906   40.1346 C.ar        1 RX4      -0.0602
      2 CAN        28.5351   -9.7218   39.1188 C.ar        1 RX4      -0.0686
      3 CAM        27.1658   -9.4087   39.0782 C.ar        1 RX4      -0.0687
      4 CAO        26.6079   -8.5689   40.0585 C.ar        1 RX4      -0.0686
      5 CAQ        27.4232   -8.0401   41.0788 C.ar        1 RX4      -0.0602
      6 CBC        28.8051   -8.3346   41.1203 C.ar        1 RX4      -0.0393
      7 CAS        29.6826   -7.6917   42.1380 C.3         1 RX4       0.0205
      8 CBG        29.9122   -6.1733   41.8516 C.3         1 RX4       0.1158
      9 NAW        30.5105   -6.0226   40.5478 N.am        1 RX4      -0.2644
     10 CBB        29.9043   -5.6833   39.4044 C.2         1 RX4       0.2049
     11 OAI        28.6946   -5.4911   39.3964 O.2         1 RX4      -0.3944
     12 CBF        30.7034   -5.6293   38.1760 C.3         1 RX4       0.1421
     13 CAR        31.8711   -4.5817   38.2629 C.3         1 RX4       0.0406
     14 CAZ        31.9141   -3.4121   37.3587 C.2         1 RX4       0.0393
     15 OAK        31.6924   -3.5544   36.0226 O.co2       1 RX4      -0.5688
     16 OAG        32.7610   -2.4098   37.6936 O.co2       1 RX4      -0.5688
     17 NAU        29.9493   -5.6328   36.9474 N.am        1 RX4      -0.2643
     18 CAX        29.0064   -4.7854   36.5389 C.2         1 RX4       0.1752
     19 CAA        28.3692   -5.0278   35.2638 C.3         1 RX4       0.0258
     20 OAE        28.6357   -3.8382   37.2172 O.2         1 RX4      -0.3972
     21 P1         30.8396   -5.3935   43.0273 P.3         1 RX4       0.0153
     22 O4         32.0470   -4.8317   42.4627 O.co2       1 RX4      -0.6174
     23 O3         31.3736   -6.3083   44.0107 O.co2       1 RX4      -0.6174
     24 CAT        30.1050   -4.1256   43.8210 C.3         1 RX4       0.0350
     25 CBD        28.7119   -4.3804   44.4953 C.3         1 RX4       0.0618
     26 CAB        28.7092   -5.4979   45.5790 C.3         1 RX4      -0.0438
     27 CBA        28.1986   -3.0981   45.0132 C.2         1 RX4       0.1825
     28 OAH        28.0871   -2.8921   46.2262 O.2         1 RX4      -0.3966
     29 N          27.8216   -2.1530   44.1605 N.am        1 RX4      -0.2656
     30 CA         27.2965   -0.8553   44.4982 C.3         1 RX4       0.1278
     31 CB         27.4118    0.0536   43.2483 C.3         1 RX4      -0.0244
     32 C          25.9533   -0.9864   45.0723 C.2         1 RX4       0.1989
     33 O          25.8291   -1.5020   46.1831 O.2         1 RX4      -0.3947
     34 NAD        24.8524   -0.6329   44.4513 N.am        1 RX4      -0.2990
     35 H1         30.3486   -9.4078   40.1290 H           1 RX4       0.0557
     36 H2         28.9437  -10.3260   38.4014 H           1 RX4       0.0599
     37 H3         26.5796   -9.7842   38.3298 H           1 RX4       0.0559
     38 H4         25.6149   -8.3332   40.0280 H           1 RX4       0.0599
     39 H5         27.0008   -7.4216   41.7769 H           1 RX4       0.0557
     40 H6         30.6560   -8.1972   42.1727 H           1 RX4       0.0465
     41 H7         29.2194   -7.8232   43.1159 H           1 RX4       0.0465
     42 H8         28.9388   -5.6865   41.8634 H           1 RX4       0.0788
     43 H9         31.4597   -6.2401   40.4810 H           1 RX4       0.1872
     44 H10        31.1883   -6.6067   38.1407 H           1 RX4       0.0819
     45 H11        32.8197   -5.1067   38.1031 H           1 RX4       0.0478
     46 H12        31.9164   -4.1709   39.2700 H           1 RX4       0.0478
     47 H13        30.1403   -6.3669   36.3370 H           1 RX4       0.1884
     48 H14        27.5808   -4.2977   35.0626 H           1 RX4       0.0467
     49 H15        27.9232   -6.0236   35.2638 H           1 RX4       0.0467
     50 H16        29.1083   -4.9724   34.4624 H           1 RX4       0.0467
     51 H17        29.9928   -3.3378   43.0752 H           1 RX4       0.0493
     52 H18        30.7896   -3.7563   44.5907 H           1 RX4       0.0493
     53 H19        27.9881   -4.6922   43.7349 H           1 RX4       0.0551
     54 H20        27.7093   -5.5984   46.0272 H           1 RX4       0.0257
     55 H21        29.4293   -5.2758   46.3727 H           1 RX4       0.0257
     56 H22        28.9583   -6.4576   45.1302 H           1 RX4       0.0257
     57 H23        27.9464   -2.3286   43.2059 H           1 RX4       0.1883
     58 H24        27.9323   -0.3879   45.2486 H           1 RX4       0.0797
     59 H25        27.0364    1.0568   43.4622 H           1 RX4       0.0277
     60 H26        26.8463   -0.3562   42.4072 H           1 RX4       0.0277
     61 H27        28.4571    0.1395   42.9340 H           1 RX4       0.0277
     62 H28        23.9958   -0.8499   44.8496 H           1 RX4       0.1815
     63 H29        24.8939   -0.2652   43.5555 H           1 RX4       0.1815
@<TRIPOS>BOND
     1     1     2  ar
     2     1     6  ar
     3     2     3  ar
     4     3     4  ar
     5     4     5  ar
     6     5     6  ar
     7     6     7   1
     8     7     8   1
     9     8     9   1
    10     8    21   1
    11     9    10  am
    12    10    11   2
    13    10    12   1
    14    12    13   1
    15    12    17   1
    16    13    14   1
    17    14    15  ar
    18    14    16  ar
    19    17    18  am
    20    18    19   1
    21    18    20   2
    22    21    22  ar
    23    21    23  ar
    24    21    24   1
    25    24    25   1
    26    25    26   1
    27    25    27   1
    28    27    28   2
    29    27    29  am
    30    29    30   1
    31    30    31   1
    32    30    32   1
    33    32    33   2
    34    32    34  am
    35     1    35   1
    36     2    36   1
    37     3    37   1
    38     4    38   1
    39     5    39   1
    40     7    40   1
    41     7    41   1
    42     8    42   1
    43     9    43   1
    44    12    44   1
    45    13    45   1
    46    13    46   1
    47    17    47   1
    48    19    48   1
    49    19    49   1
    50    19    50   1
    51    24    51   1
    52    24    52   1
    53    25    53   1
    54    26    54   1
    55    26    55   1
    56    26    56   1
    57    29    57   1
    58    30    58   1
    59    31    59   1
    60    31    60   1
    61    31    61   1
    62    34    62   1
    63    34    63   1
@<TRIPOS>SUBSTRUCTURE
     1  RX4      1

