@<TRIPOS>MOLECULE
2xb8_ligand_004
    39    40
SMALL
GAST_HUCK
****
This file was generated by PARSER (from files_GN.cpp)

@<TRIPOS>ATOM
      1 CAA        19.1726   -1.1051   40.1262 C.3         1 XNW       0.0579
      2 OAN        19.0781    0.0793   40.9357 O.3         1 XNW      -0.3257
      3 CAR        17.9661    0.8250   40.6849 C.ar        1 XNW       0.0837
      4 CAK        16.8801    0.7674   41.5841 C.ar        1 XNW      -0.0396
      5 CAI        15.7234    1.5307   41.3489 C.ar        1 XNW      -0.0686
      6 CAJ        17.8833    1.6673   39.5638 C.ar        1 XNW      -0.0396
      7 CAH        16.7288    2.4328   39.3298 C.ar        1 XNW      -0.0686
      8 CAQ        15.6315    2.3790   40.2196 C.ar        1 XNW      -0.0512
      9 CAL        14.4028    3.1806   39.9555 C.3         1 XNW      -0.0032
     10 CAU        13.2168    2.3221   39.3745 C.3         1 XNW       0.0770
     11 CAP        12.4569    1.6528   40.4494 C.2         1 XNW       0.1429
     12 OAC        12.5123    0.4315   40.5502 O.2         1 XNW      -0.3883
     13 CAT        11.4666    2.3709   41.2626 C.3         1 XNW       0.1537
     14 OAF        12.1298    3.1902   42.2239 O.3         1 XNW      -0.3698
     15 CAS        10.5153    3.2416   40.3897 C.3         1 XNW       0.0993
     16 OAE         9.4667    2.4521   39.8292 O.3         1 XNW      -0.3868
     17 CAM        11.2650    4.0006   39.2634 C.3         1 XNW       0.0142
     18 CAV        12.2285    3.1007   38.4189 C.3         1 XNW       0.1328
     19 CAO        11.5033    2.1640   37.4996 C.2         1 XNW       0.0791
     20 OAD        11.6325    2.2594   36.1544 O.co2       1 XNW      -0.5449
     21 OAB        10.9875    0.9951   37.9344 O.co2       1 XNW      -0.5449
     22 OAG        12.9561    3.9898   37.5641 O.3         1 XNW      -0.3822
     23 H1         20.0567   -1.6649   40.4409 H           1 XNW       0.0575
     24 H2         19.2916   -0.8547   39.0678 H           1 XNW       0.0575
     25 H3         18.2977   -1.7505   40.2533 H           1 XNW       0.0575
     26 H4         16.9239    0.1593   42.4048 H           1 XNW       0.0525
     27 H5         14.9365    1.4574   41.9967 H           1 XNW       0.0530
     28 H6         18.6711    1.7169   38.9055 H           1 XNW       0.0525
     29 H7         16.6895    3.0172   38.4828 H           1 XNW       0.0530
     30 H8         14.6577    3.9731   39.2531 H           1 XNW       0.0433
     31 H9         14.1203    3.7069   40.8681 H           1 XNW       0.0433
     32 H10        13.6893    1.5483   38.7545 H           1 XNW       0.0571
     33 H11        10.8675    1.6576   41.8397 H           1 XNW       0.0855
     34 H12        11.4105    3.5829   42.7673 H           1 XNW       0.2135
     35 H13        10.0211    3.9791   41.0331 H           1 XNW       0.0645
     36 H14         8.8757    2.2483   40.5965 H           1 XNW       0.2101
     37 H15        11.8509    4.7896   39.7395 H           1 XNW       0.0314
     38 H16        10.5415    4.4938   38.6119 H           1 XNW       0.0314
     39 H17        12.2793    4.4583   37.0258 H           1 XNW       0.2091
@<TRIPOS>BOND
     1     1     2   1
     2     2     3   1
     3     3     4  ar
     4     3     6  ar
     5     4     5  ar
     6     5     8  ar
     7     6     7  ar
     8     7     8  ar
     9     8     9   1
    10     9    10   1
    11    10    11   1
    12    10    18   1
    13    11    12   2
    14    11    13   1
    15    13    14   1
    16    13    15   1
    17    15    16   1
    18    15    17   1
    19    17    18   1
    20    18    19   1
    21    18    22   1
    22    19    20  ar
    23    19    21  ar
    24     1    23   1
    25     1    24   1
    26     1    25   1
    27     4    26   1
    28     5    27   1
    29     6    28   1
    30     7    29   1
    31     9    30   1
    32     9    31   1
    33    10    32   1
    34    13    33   1
    35    14    34   1
    36    15    35   1
    37    16    36   1
    38    17    37   1
    39    17    38   1
    40    22    39   1
@<TRIPOS>SUBSTRUCTURE
     1  XNW      1

