@<TRIPOS>MOLECULE
2xbv_ligand_084
    58    61
SMALL
GAST_HUCK
****
This file was generated by PARSER (from files_GN.cpp)

@<TRIPOS>ATOM
      1 C1          8.8545   65.7336    2.0009 C.3         1 XBV       0.1199
      2 C2          8.0585   66.7684    2.8699 C.3         1 XBV       0.1186
      3 C3          6.9676   65.8924    3.5420 C.3         1 XBV      -0.0085
      4 N4          7.5837   64.5520    3.6676 N.4         1 XBV       0.2432
      5 C5          8.2524   64.3447    2.3621 C.3         1 XBV      -0.0084
      6 C6         10.3050   65.7888    2.2163 C.2         1 XBV       0.2190
      7 C7          7.5831   67.9598    2.1479 C.2         1 XBV       0.2118
      8 N8          8.4448   68.6367    1.3904 N.am        1 XBV      -0.2375
      9 O9          6.4312   68.3610    2.3071 O.2         1 XBV      -0.3856
     10 O10        11.0307   66.0213    1.2544 O.2         1 XBV      -0.3820
     11 N11        10.7958   65.5576    3.4331 N.am        1 XBV      -0.2172
     12 C12        12.0880   65.5461    3.8505 C.ar        1 XBV       0.1394
     13 N13        13.1407   65.7901    3.0185 N.ar        1 XBV      -0.2842
     14 C14        14.7483   65.4185    4.7439 C.ar        1 XBV       0.0509
     15 C15        13.6958   65.1924    5.6475 C.ar        1 XBV      -0.0424
     16 C16        14.4359   65.7416    3.4116 C.ar        1 XBV       0.0070
     17 C17        12.3622   65.2561    5.2033 C.ar        1 XBV      -0.0126
     18 CL1        16.3593   65.2682    5.2315 Cl          1 XBV      -0.0753
     19 C19         8.1640   69.7186    0.6025 C.ar        1 XBV       0.0920
     20 C20         7.5008   69.5478   -0.6361 C.ar        1 XBV      -0.0478
     21 C21         7.8013   71.9150   -1.1516 C.ar        1 XBV       0.0960
     22 C22         8.4472   72.0929    0.0889 C.ar        1 XBV      -0.0056
     23 C23         7.3441   70.6303   -1.5134 C.ar        1 XBV      -0.0431
     24 C24         8.6484   70.9998    0.9534 C.ar        1 XBV       0.1465
     25 N25         7.5968   72.9893   -1.9780 N.am        1 XBV      -0.1717
     26 C26         6.5636   73.8350   -1.6934 C.2         1 XBV       0.0799
     27 C27         7.1445   75.1500   -3.5402 C.2         1 XBV      -0.0778
     28 C28         8.1652   74.3172   -3.8381 C.2         1 XBV      -0.0111
     29 C29         6.3279   74.9098   -2.4768 C.2         1 XBV      -0.0402
     30 C30         8.3911   73.2198   -3.0486 C.2         1 XBV       0.2151
     31 O31         9.3109   72.4780   -3.3556 O.2         1 XBV      -0.4155
     32 F32         9.2688   71.1969    2.0946 F           1 XBV      -0.1956
     33 C33         6.6813   63.4439    4.1153 C.3         1 XBV       0.0304
     34 C34         6.5403   63.3852    5.6604 C.3         1 XBV       0.2778
     35 F35         5.4930   64.1634    6.1056 F           1 XBV      -0.2034
     36 F36         6.3132   62.0998    6.1003 F           1 XBV      -0.2034
     37 H1          8.6444   65.9114    0.9367 H           1 XBV       0.0628
     38 H2          8.6880   67.1337    3.6925 H           1 XBV       0.0626
     39 H3          6.0625   65.8424    2.9225 H           1 XBV       0.0845
     40 H4          6.7060   66.2924    4.5247 H           1 XBV       0.0845
     41 H5          8.3250   64.6265    4.3719 H           1 XBV       0.2039
     42 H6          9.0061   63.5562    2.4375 H           1 XBV       0.0845
     43 H7          7.5251   64.0403    1.6028 H           1 XBV       0.0845
     44 H8          9.3661   68.3127    1.3699 H           1 XBV       0.2221
     45 H9         10.1424   65.3583    4.1207 H           1 XBV       0.2314
     46 H10        13.8926   64.9681    6.6254 H           1 XBV       0.0697
     47 H11        15.1731   65.9394    2.7351 H           1 XBV       0.0781
     48 H12        11.6044   65.0787    5.8608 H           1 XBV       0.0598
     49 H13         7.1771   68.6288   -0.9251 H           1 XBV       0.0473
     50 H14         8.7786   73.0212    0.3726 H           1 XBV       0.0513
     51 H15         6.8943   70.4852   -2.4134 H           1 XBV       0.0496
     52 H16         5.9646   73.6768   -0.9103 H           1 XBV       0.1228
     53 H17         6.9817   75.9478   -4.1086 H           1 XBV       0.0636
     54 H18         8.7392   74.5085   -4.6245 H           1 XBV       0.0399
     55 H19         5.5715   75.5235   -2.2721 H           1 XBV       0.0371
     56 H20         7.1046   62.4884    3.7916 H           1 XBV       0.0871
     57 H21         5.6965   63.5422    3.6557 H           1 XBV       0.0871
     58 H22         7.4723   63.7397    6.1079 H           1 XBV       0.1075
@<TRIPOS>BOND
     1     2     1   1
     2     1     5   1
     3     1     6   1
     4     2     3   1
     5     7     2   1
     6     3     4   1
     7     4     5   1
     8     4    33   1
     9     6    10   2
    10     6    11  am
    11     8     7  am
    12     7     9   2
    13    19     8   1
    14    11    12   1
    15    12    13  ar
    16    12    17  ar
    17    13    16  ar
    18    15    14  ar
    19    16    14  ar
    20    14    18   1
    21    17    15  ar
    22    20    19  ar
    23    24    19  ar
    24    23    20  ar
    25    21    22  ar
    26    21    23  ar
    27    25    21   1
    28    22    24  ar
    29    24    32   1
    30    26    25   1
    31    25    30  am
    32    29    26   2
    33    27    28   2
    34    27    29   1
    35    28    30   1
    36    30    31   2
    37    33    34   1
    38    34    35   1
    39    34    36   1
    40     1    37   1
    41     2    38   1
    42     3    39   1
    43     3    40   1
    44     4    41   1
    45     5    42   1
    46     5    43   1
    47     8    44   1
    48    11    45   1
    49    15    46   1
    50    16    47   1
    51    17    48   1
    52    20    49   1
    53    22    50   1
    54    23    51   1
    55    26    52   1
    56    27    53   1
    57    28    54   1
    58    29    55   1
    59    33    56   1
    60    33    57   1
    61    34    58   1
@<TRIPOS>SUBSTRUCTURE
     1  XBV      1

