@<TRIPOS>MOLECULE
2xbv_ligand_067
    58    61
SMALL
GAST_HUCK
****
This file was generated by PARSER (from files_GN.cpp)

@<TRIPOS>ATOM
      1 C1         11.3629   64.6416    0.8250 C.3         1 XBV       0.1199
      2 C2          9.8201   64.5213    0.6790 C.3         1 XBV       0.1186
      3 C3          9.6737   64.4399   -0.8595 C.3         1 XBV      -0.0085
      4 N4         10.8184   63.6244   -1.3437 N.4         1 XBV       0.2432
      5 C5         11.8997   63.7492   -0.3217 C.3         1 XBV      -0.0084
      6 C6         11.9531   64.3524    2.1390 C.2         1 XBV       0.2190
      7 C7          9.0061   65.5840    1.2730 C.2         1 XBV       0.2118
      8 N8          9.5211   66.4774    2.1110 N.am        1 XBV      -0.2375
      9 O9          7.8081   65.5870    1.0201 O.2         1 XBV      -0.3856
     10 O10        11.3005   63.7434    2.9794 O.2         1 XBV      -0.3820
     11 N11        13.1645   64.8302    2.4152 N.am        1 XBV      -0.2172
     12 C12        13.8558   64.7811    3.5840 C.ar        1 XBV       0.1394
     13 N13        13.3697   64.2060    4.7208 N.ar        1 XBV      -0.2842
     14 C14        15.3282   64.7285    5.9824 C.ar        1 XBV       0.0509
     15 C15        15.8714   65.3430    4.8388 C.ar        1 XBV      -0.0424
     16 C16        14.0446   64.1618    5.8974 C.ar        1 XBV       0.0070
     17 C17        15.1354   65.3744    3.6401 C.ar        1 XBV      -0.0126
     18 CL1        16.1963   64.6642    7.4348 Cl          1 XBV      -0.0753
     19 C19         8.8841   67.5588    2.6509 C.ar        1 XBV       0.0920
     20 C20         8.1271   68.4416    1.8483 C.ar        1 XBV      -0.0478
     21 C21         7.5975   69.8105    3.8013 C.ar        1 XBV       0.0960
     22 C22         8.3765   68.9456    4.5991 C.ar        1 XBV      -0.0056
     23 C23         7.4861   69.5521    2.4178 C.ar        1 XBV      -0.0431
     24 C24         9.0270   67.8359    4.0326 C.ar        1 XBV       0.1465
     25 N25         6.9606   70.8930    4.3585 N.am        1 XBV      -0.1717
     26 C26         7.6301   72.0801    4.4379 C.2         1 XBV       0.0799
     27 C27         5.7643   73.0518    5.4699 C.2         1 XBV      -0.0778
     28 C28         5.0937   71.8874    5.3919 C.2         1 XBV      -0.0111
     29 C29         7.0404   73.1575    4.9917 C.2         1 XBV      -0.0402
     30 C30         5.6979   70.7909    4.8281 C.2         1 XBV       0.2151
     31 O31         5.0513   69.7499    4.7719 O.2         1 XBV      -0.4155
     32 F32         9.7294   67.0524    4.8032 F           1 XBV      -0.1956
     33 C33        11.2329   63.6919   -2.7922 C.3         1 XBV       0.0304
     34 C34        10.6728   64.7988   -3.7222 C.3         1 XBV       0.2778
     35 F35         9.3050   64.7157   -3.8315 F           1 XBV      -0.2034
     36 F36        11.0210   66.0488   -3.2691 F           1 XBV      -0.2034
     37 H1         11.6237   65.6773    0.5708 H           1 XBV       0.0628
     38 H2          9.4855   63.5697    1.1038 H           1 XBV       0.0626
     39 H3          9.6865   65.4465   -1.2772 H           1 XBV       0.0845
     40 H4          8.7270   63.9601   -1.1380 H           1 XBV       0.0845
     41 H5         10.4845   62.6585   -1.2494 H           1 XBV       0.2039
     42 H6         12.1189   62.7425    0.0435 H           1 XBV       0.0845
     43 H7         12.8290   64.1787   -0.7080 H           1 XBV       0.0845
     44 H8         10.4381   66.3345    2.4015 H           1 XBV       0.2221
     45 H9         13.6035   65.3029    1.6918 H           1 XBV       0.2314
     46 H10        16.8014   65.7696    4.8744 H           1 XBV       0.0697
     47 H11        13.6143   63.7211    6.7127 H           1 XBV       0.0781
     48 H12        15.5352   65.8315    2.8181 H           1 XBV       0.0598
     49 H13         8.0529   68.2794    0.8414 H           1 XBV       0.0473
     50 H14         8.4702   69.1309    5.6000 H           1 XBV       0.0513
     51 H15         6.9410   70.1796    1.8217 H           1 XBV       0.0496
     52 H16         8.5660   72.1653    4.1046 H           1 XBV       0.1228
     53 H17         5.3320   73.8472    5.8832 H           1 XBV       0.0636
     54 H18         4.1633   71.8308    5.7475 H           1 XBV       0.0399
     55 H19         7.5309   74.0216    5.0563 H           1 XBV       0.0371
     56 H20        10.9630   62.7270   -3.2361 H           1 XBV       0.0871
     57 H21        12.3191   63.7587   -2.8742 H           1 XBV       0.0871
     58 H22        11.0943   64.6762   -4.7217 H           1 XBV       0.1075
@<TRIPOS>BOND
     1     2     1   1
     2     1     5   1
     3     1     6   1
     4     2     3   1
     5     7     2   1
     6     3     4   1
     7     4     5   1
     8     4    33   1
     9     6    10   2
    10     6    11  am
    11     8     7  am
    12     7     9   2
    13    19     8   1
    14    11    12   1
    15    12    13  ar
    16    12    17  ar
    17    13    16  ar
    18    15    14  ar
    19    16    14  ar
    20    14    18   1
    21    17    15  ar
    22    20    19  ar
    23    24    19  ar
    24    23    20  ar
    25    21    22  ar
    26    21    23  ar
    27    25    21   1
    28    22    24  ar
    29    24    32   1
    30    26    25   1
    31    25    30  am
    32    29    26   2
    33    27    28   2
    34    27    29   1
    35    28    30   1
    36    30    31   2
    37    33    34   1
    38    34    35   1
    39    34    36   1
    40     1    37   1
    41     2    38   1
    42     3    39   1
    43     3    40   1
    44     4    41   1
    45     5    42   1
    46     5    43   1
    47     8    44   1
    48    11    45   1
    49    15    46   1
    50    16    47   1
    51    17    48   1
    52    20    49   1
    53    22    50   1
    54    23    51   1
    55    26    52   1
    56    27    53   1
    57    28    54   1
    58    29    55   1
    59    33    56   1
    60    33    57   1
    61    34    58   1
@<TRIPOS>SUBSTRUCTURE
     1  XBV      1

