@<TRIPOS>MOLECULE
2xbv_ligand_035
    58    61
SMALL
GAST_HUCK
****
This file was generated by PARSER (from files_GN.cpp)

@<TRIPOS>ATOM
      1 C1          9.8232   67.2094    3.2281 C.3         1 XBV       0.1199
      2 C2          9.6748   65.8230    2.5260 C.3         1 XBV       0.1186
      3 C3         11.0308   65.1721    2.8907 C.3         1 XBV      -0.0085
      4 N4         11.2247   65.5390    4.3110 N.4         1 XBV       0.2432
      5 C5         10.7088   66.9233    4.4700 C.3         1 XBV      -0.0084
      6 C6          8.5997   67.9447    3.5538 C.2         1 XBV       0.2190
      7 C7          9.3595   65.8728    1.0914 C.2         1 XBV       0.2118
      8 N8          9.7138   64.8802    0.2763 N.am        1 XBV      -0.2375
      9 O9          8.6917   66.8159    0.6782 O.2         1 XBV      -0.3856
     10 O10         7.5270   67.3535    3.5779 O.2         1 XBV      -0.3820
     11 N11         8.6932   69.2464    3.8073 N.am        1 XBV      -0.2172
     12 C12         7.7112   70.1286    4.1272 C.ar        1 XBV       0.1394
     13 N13         6.4066   69.7727    4.2976 N.ar        1 XBV      -0.2842
     14 C14         5.7353   72.0152    4.7854 C.ar        1 XBV       0.0509
     15 C15         7.0700   72.4274    4.6161 C.ar        1 XBV      -0.0424
     16 C16         5.4245   70.6526    4.6191 C.ar        1 XBV       0.0070
     17 C17         8.0620   71.4863    4.2900 C.ar        1 XBV      -0.0126
     18 CL1         4.5303   73.1342    5.1776 Cl          1 XBV      -0.0753
     19 C19         9.5839   64.7129   -1.0928 C.ar        1 XBV       0.0920
     20 C20         8.8390   65.5552   -1.9579 C.ar        1 XBV      -0.0478
     21 C21         9.4531   64.2208   -3.9420 C.ar        1 XBV       0.0960
     22 C22        10.1869   63.3754   -3.0781 C.ar        1 XBV      -0.0056
     23 C23         8.7925   65.3242   -3.3490 C.ar        1 XBV      -0.0431
     24 C24        10.2567   63.6161   -1.6889 C.ar        1 XBV       0.1465
     25 N25         9.4035   64.0131   -5.3182 N.am        1 XBV      -0.1717
     26 C26        10.5357   63.5881   -5.9677 C.2         1 XBV       0.0799
     27 C27         9.4451   63.7528   -8.0337 C.2         1 XBV      -0.0778
     28 C28         8.3144   64.1553   -7.4170 C.2         1 XBV      -0.0111
     29 C29        10.5496   63.4356   -7.3086 C.2         1 XBV      -0.0402
     30 C30         8.2859   64.2410   -6.0494 C.2         1 XBV       0.2151
     31 O31         7.2021   64.5070   -5.5338 O.2         1 XBV      -0.4155
     32 F32        10.9851   62.7998   -0.9676 F           1 XBV      -0.1956
     33 C33        12.5261   65.1931    4.9648 C.3         1 XBV       0.0304
     34 C34        13.8065   65.9928    4.5970 C.3         1 XBV       0.2778
     35 F35        14.8627   65.5758    5.3761 F           1 XBV      -0.2034
     36 F36        14.1681   65.8226    3.2836 F           1 XBV      -0.2034
     37 H1         10.4141   67.8375    2.5468 H           1 XBV       0.0628
     38 H2          8.8866   65.2414    3.0155 H           1 XBV       0.0626
     39 H3         11.8268   65.5776    2.2622 H           1 XBV       0.0845
     40 H4         10.9874   64.0873    2.7777 H           1 XBV       0.0845
     41 H5         10.5392   64.9676    4.8125 H           1 XBV       0.2039
     42 H6         10.1306   66.9664    5.3983 H           1 XBV       0.0845
     43 H7         11.5031   67.6736    4.5328 H           1 XBV       0.0845
     44 H8         10.1810   64.1470    0.7094 H           1 XBV       0.2221
     45 H9          9.5864   69.6224    3.7386 H           1 XBV       0.2314
     46 H10         7.3266   73.4109    4.7308 H           1 XBV       0.0697
     47 H11         4.4675   70.3165    4.7333 H           1 XBV       0.0781
     48 H12         9.0314   71.7941    4.1691 H           1 XBV       0.0598
     49 H13         8.3271   66.3638   -1.5900 H           1 XBV       0.0473
     50 H14        10.6842   62.5705   -3.4588 H           1 XBV       0.0513
     51 H15         8.2743   65.9879   -3.9304 H           1 XBV       0.0496
     52 H16        11.3769   63.3888   -5.4722 H           1 XBV       0.1228
     53 H17         9.4726   63.7026   -9.0247 H           1 XBV       0.0636
     54 H18         7.5240   64.4069   -7.9635 H           1 XBV       0.0399
     55 H19        11.3680   63.1061   -7.7658 H           1 XBV       0.0371
     56 H20        12.7257   64.1346    4.7731 H           1 XBV       0.0871
     57 H21        12.3745   65.2915    6.0429 H           1 XBV       0.0871
     58 H22        13.6627   67.0578    4.7851 H           1 XBV       0.1075
@<TRIPOS>BOND
     1     2     1   1
     2     1     5   1
     3     1     6   1
     4     2     3   1
     5     7     2   1
     6     3     4   1
     7     4     5   1
     8     4    33   1
     9     6    10   2
    10     6    11  am
    11     8     7  am
    12     7     9   2
    13    19     8   1
    14    11    12   1
    15    12    13  ar
    16    12    17  ar
    17    13    16  ar
    18    15    14  ar
    19    16    14  ar
    20    14    18   1
    21    17    15  ar
    22    20    19  ar
    23    24    19  ar
    24    23    20  ar
    25    21    22  ar
    26    21    23  ar
    27    25    21   1
    28    22    24  ar
    29    24    32   1
    30    26    25   1
    31    25    30  am
    32    29    26   2
    33    27    28   2
    34    27    29   1
    35    28    30   1
    36    30    31   2
    37    33    34   1
    38    34    35   1
    39    34    36   1
    40     1    37   1
    41     2    38   1
    42     3    39   1
    43     3    40   1
    44     4    41   1
    45     5    42   1
    46     5    43   1
    47     8    44   1
    48    11    45   1
    49    15    46   1
    50    16    47   1
    51    17    48   1
    52    20    49   1
    53    22    50   1
    54    23    51   1
    55    26    52   1
    56    27    53   1
    57    28    54   1
    58    29    55   1
    59    33    56   1
    60    33    57   1
    61    34    58   1
@<TRIPOS>SUBSTRUCTURE
     1  XBV      1

