@<TRIPOS>MOLECULE
2xbv_ligand_033
    58    61
SMALL
GAST_HUCK
****
This file was generated by PARSER (from files_GN.cpp)

@<TRIPOS>ATOM
      1 C1         10.7287   65.6402   -3.0420 C.3         1 XBV       0.1199
      2 C2         10.9668   64.4356   -2.0562 C.3         1 XBV       0.1186
      3 C3         10.5677   63.1948   -2.8887 C.3         1 XBV      -0.0085
      4 N4         10.8545   63.5516   -4.2862 N.4         1 XBV       0.2432
      5 C5         10.3898   64.9527   -4.3984 C.3         1 XBV      -0.0084
      6 C6         11.7988   66.6440   -3.1399 C.2         1 XBV       0.2190
      7 C7         10.3035   64.5569   -0.7533 C.2         1 XBV       0.2118
      8 N8          9.4624   63.6329   -0.2997 N.am        1 XBV      -0.2375
      9 O9         10.5786   65.5303   -0.0602 O.2         1 XBV      -0.3856
     10 O10        12.7609   66.5899   -2.3831 O.2         1 XBV      -0.3820
     11 N11        11.6721   67.6489   -4.0061 N.am        1 XBV      -0.2172
     12 C12        12.5052   68.7010   -4.2214 C.ar        1 XBV       0.1394
     13 N13        13.6452   68.8982   -3.5008 N.ar        1 XBV      -0.2842
     14 C14        14.1918   70.9072   -4.6667 C.ar        1 XBV       0.0509
     15 C15        13.0321   70.7436   -5.4453 C.ar        1 XBV      -0.0424
     16 C16        14.4870   69.9449   -3.6834 C.ar        1 XBV       0.0070
     17 C17        12.1858   69.6392   -5.2280 C.ar        1 XBV      -0.0126
     18 CL1        15.2062   72.2395   -4.8994 Cl          1 XBV      -0.0753
     19 C19         8.6823   63.7416    0.7939 C.ar        1 XBV       0.0920
     20 C20         7.3813   64.2666    0.6552 C.ar        1 XBV      -0.0478
     21 C21         6.9557   63.8550    3.0247 C.ar        1 XBV       0.0960
     22 C22         8.2506   63.2981    3.1463 C.ar        1 XBV      -0.0056
     23 C23         6.5242   64.3283    1.7646 C.ar        1 XBV      -0.0431
     24 C24         9.1125   63.2362    2.0398 C.ar        1 XBV       0.1465
     25 N25         6.1496   63.9566    4.1283 N.am        1 XBV      -0.1717
     26 C26         5.0789   63.1150    4.2468 C.2         1 XBV       0.0799
     27 C27         4.6143   64.0346    6.3514 C.2         1 XBV      -0.0778
     28 C28         5.6496   64.8888    6.2285 C.2         1 XBV      -0.0111
     29 C29         4.3125   63.1525    5.3547 C.2         1 XBV      -0.0402
     30 C30         6.4285   64.8480    5.1052 C.2         1 XBV       0.2151
     31 O31         7.3609   65.6439    5.0240 O.2         1 XBV      -0.4155
     32 F32        10.2974   62.7011    2.1752 F           1 XBV      -0.1956
     33 C33        10.2901   62.6115   -5.3012 C.3         1 XBV       0.0304
     34 C34        10.9116   61.1922   -5.2246 C.3         1 XBV       0.2778
     35 F35        10.3334   60.4293   -4.2395 F           1 XBV      -0.2034
     36 F36        10.7487   60.5178   -6.4095 F           1 XBV      -0.2034
     37 H1          9.8339   66.1869   -2.7229 H           1 XBV       0.0628
     38 H2         12.0368   64.3153   -1.8487 H           1 XBV       0.0626
     39 H3          9.4970   62.9781   -2.7975 H           1 XBV       0.0845
     40 H4         11.1434   62.3220   -2.5687 H           1 XBV       0.0845
     41 H5         11.8694   63.5726   -4.4151 H           1 XBV       0.2039
     42 H6         10.8705   65.4276   -5.2549 H           1 XBV       0.0845
     43 H7          9.3055   64.9878   -4.5621 H           1 XBV       0.0845
     44 H8          9.3121   62.8471   -0.8445 H           1 XBV       0.2221
     45 H9         10.8769   67.6219   -4.5641 H           1 XBV       0.2314
     46 H10        12.7966   71.4271   -6.1689 H           1 XBV       0.0697
     47 H11        15.3201   70.0261   -3.0993 H           1 XBV       0.0781
     48 H12        11.3459   69.5271   -5.8005 H           1 XBV       0.0598
     49 H13         7.0518   64.6046   -0.2545 H           1 XBV       0.0473
     50 H14         8.5648   62.9310    4.0511 H           1 XBV       0.0513
     51 H15         5.5876   64.7251    1.6585 H           1 XBV       0.0496
     52 H16         4.8543   62.4590    3.5301 H           1 XBV       0.1228
     53 H17         4.0637   64.0478    7.1783 H           1 XBV       0.0636
     54 H18         5.8462   65.5327    6.9590 H           1 XBV       0.0399
     55 H19         3.5331   62.5451    5.4461 H           1 XBV       0.0371
     56 H20        10.4969   63.0207   -6.2948 H           1 XBV       0.0871
     57 H21         9.2017   62.5388   -5.1923 H           1 XBV       0.0871
     58 H22        11.9787   61.2705   -5.0222 H           1 XBV       0.1075
@<TRIPOS>BOND
     1     2     1   1
     2     1     5   1
     3     1     6   1
     4     2     3   1
     5     7     2   1
     6     3     4   1
     7     4     5   1
     8     4    33   1
     9     6    10   2
    10     6    11  am
    11     8     7  am
    12     7     9   2
    13    19     8   1
    14    11    12   1
    15    12    13  ar
    16    12    17  ar
    17    13    16  ar
    18    15    14  ar
    19    16    14  ar
    20    14    18   1
    21    17    15  ar
    22    20    19  ar
    23    24    19  ar
    24    23    20  ar
    25    21    22  ar
    26    21    23  ar
    27    25    21   1
    28    22    24  ar
    29    24    32   1
    30    26    25   1
    31    25    30  am
    32    29    26   2
    33    27    28   2
    34    27    29   1
    35    28    30   1
    36    30    31   2
    37    33    34   1
    38    34    35   1
    39    34    36   1
    40     1    37   1
    41     2    38   1
    42     3    39   1
    43     3    40   1
    44     4    41   1
    45     5    42   1
    46     5    43   1
    47     8    44   1
    48    11    45   1
    49    15    46   1
    50    16    47   1
    51    17    48   1
    52    20    49   1
    53    22    50   1
    54    23    51   1
    55    26    52   1
    56    27    53   1
    57    28    54   1
    58    29    55   1
    59    33    56   1
    60    33    57   1
    61    34    58   1
@<TRIPOS>SUBSTRUCTURE
     1  XBV      1

