@<TRIPOS>MOLECULE
2xbv_ligand_007
    58    61
SMALL
GAST_HUCK
****
This file was generated by PARSER (from files_GN.cpp)

@<TRIPOS>ATOM
      1 C1         10.7285   66.1354    3.9840 C.3         1 XBV       0.1199
      2 C2          9.9654   65.6790    2.7057 C.3         1 XBV       0.1186
      3 C3          9.2801   66.9994    2.2795 C.3         1 XBV      -0.0085
      4 N4         10.2964   68.0552    2.5099 N.4         1 XBV       0.2432
      5 C5         11.0448   67.6358    3.7273 C.3         1 XBV      -0.0084
      6 C6         11.9088   65.3579    4.3579 C.2         1 XBV       0.2190
      7 C7          9.0982   64.5131    2.9033 C.2         1 XBV       0.2118
      8 N8          7.9081   64.4380    2.3139 N.am        1 XBV      -0.2375
      9 O9          9.5674   63.5465    3.4961 O.2         1 XBV      -0.3856
     10 O10        12.4669   64.6597    3.5182 O.2         1 XBV      -0.3820
     11 N11        12.3748   65.4657    5.5970 N.am        1 XBV      -0.2172
     12 C12        13.4580   64.8607    6.1491 C.ar        1 XBV       0.1394
     13 N13        14.2718   64.0171    5.4519 N.ar        1 XBV      -0.2842
     14 C14        15.6963   63.6462    7.3304 C.ar        1 XBV       0.0509
     15 C15        14.8856   64.5112    8.0909 C.ar        1 XBV      -0.0424
     16 C16        15.3603   63.4109    5.9854 C.ar        1 XBV       0.0070
     17 C17        13.7611   65.1203    7.5029 C.ar        1 XBV      -0.0126
     18 CL1        17.0609   62.9195    8.0156 Cl          1 XBV      -0.0753
     19 C19         6.9652   63.4492    2.3845 C.ar        1 XBV       0.0920
     20 C20         6.7403   62.6739    3.5486 C.ar        1 XBV      -0.0478
     21 C21         4.8931   61.4984    2.4603 C.ar        1 XBV       0.0960
     22 C22         5.1065   62.2749    1.3006 C.ar        1 XBV      -0.0056
     23 C23         5.7197   61.7070    3.5846 C.ar        1 XBV      -0.0431
     24 C24         6.1269   63.2431    1.2630 C.ar        1 XBV       0.1465
     25 N25         3.8822   60.5709    2.4930 N.am        1 XBV      -0.1717
     26 C26         4.1998   59.2490    2.3579 C.2         1 XBV       0.0799
     27 C27         1.9224   58.7037    2.4309 C.2         1 XBV      -0.0778
     28 C28         1.5983   60.0025    2.5840 C.2         1 XBV      -0.0111
     29 C29         3.2265   58.3174    2.3191 C.2         1 XBV      -0.0402
     30 C30         2.5884   60.9497    2.6122 C.2         1 XBV       0.2151
     31 O31         2.2566   62.1224    2.7475 O.2         1 XBV      -0.4155
     32 F32         6.2906   63.9322    0.1631 F           1 XBV      -0.1956
     33 C33         9.7477   69.4516    2.5012 C.3         1 XBV       0.0304
     34 C34        10.7962   70.5825    2.3406 C.3         1 XBV       0.2778
     35 F35        10.1890   71.8075    2.4977 F           1 XBV      -0.2034
     36 F36        11.8025   70.4933    3.2722 F           1 XBV      -0.2034
     37 H1         10.0158   66.0823    4.8190 H           1 XBV       0.0628
     38 H2         10.6788   65.4199    1.9157 H           1 XBV       0.0626
     39 H3          8.3827   67.1797    2.8850 H           1 XBV       0.0845
     40 H4          8.9989   66.9625    1.2220 H           1 XBV       0.0845
     41 H5         10.9530   67.9870    1.7283 H           1 XBV       0.2039
     42 H6         12.1095   67.8013    3.5382 H           1 XBV       0.0845
     43 H7         10.7609   68.2193    4.6091 H           1 XBV       0.0845
     44 H8          7.6922   65.1639    1.7076 H           1 XBV       0.2221
     45 H9         11.8694   66.0498    6.1870 H           1 XBV       0.2314
     46 H10        15.1181   64.7081    9.0670 H           1 XBV       0.0697
     47 H11        15.9265   62.7935    5.4002 H           1 XBV       0.0781
     48 H12        13.1766   65.7499    8.0602 H           1 XBV       0.0598
     49 H13         7.2977   62.8298    4.3927 H           1 XBV       0.0473
     50 H14         4.5161   62.1307    0.4762 H           1 XBV       0.0513
     51 H15         5.5735   61.1655    4.4380 H           1 XBV       0.0496
     52 H16         5.1478   58.9522    2.2702 H           1 XBV       0.1228
     53 H17         1.2044   58.0174    2.4060 H           1 XBV       0.0636
     54 H18         0.6413   60.2653    2.6666 H           1 XBV       0.0399
     55 H19         3.4547   57.3557    2.2057 H           1 XBV       0.0371
     56 H20         9.1730   69.6297    3.4162 H           1 XBV       0.0871
     57 H21         9.0599   69.5459    1.6542 H           1 XBV       0.0871
     58 H22        11.2328   70.5491    1.3400 H           1 XBV       0.1075
@<TRIPOS>BOND
     1     2     1   1
     2     1     5   1
     3     1     6   1
     4     2     3   1
     5     7     2   1
     6     3     4   1
     7     4     5   1
     8     4    33   1
     9     6    10   2
    10     6    11  am
    11     8     7  am
    12     7     9   2
    13    19     8   1
    14    11    12   1
    15    12    13  ar
    16    12    17  ar
    17    13    16  ar
    18    15    14  ar
    19    16    14  ar
    20    14    18   1
    21    17    15  ar
    22    20    19  ar
    23    24    19  ar
    24    23    20  ar
    25    21    22  ar
    26    21    23  ar
    27    25    21   1
    28    22    24  ar
    29    24    32   1
    30    26    25   1
    31    25    30  am
    32    29    26   2
    33    27    28   2
    34    27    29   1
    35    28    30   1
    36    30    31   2
    37    33    34   1
    38    34    35   1
    39    34    36   1
    40     1    37   1
    41     2    38   1
    42     3    39   1
    43     3    40   1
    44     4    41   1
    45     5    42   1
    46     5    43   1
    47     8    44   1
    48    11    45   1
    49    15    46   1
    50    16    47   1
    51    17    48   1
    52    20    49   1
    53    22    50   1
    54    23    51   1
    55    26    52   1
    56    27    53   1
    57    28    54   1
    58    29    55   1
    59    33    56   1
    60    33    57   1
    61    34    58   1
@<TRIPOS>SUBSTRUCTURE
     1  XBV      1

