@<TRIPOS>MOLECULE
2xbv_ligand_006
    58    61
SMALL
GAST_HUCK
****
This file was generated by PARSER (from files_GN.cpp)

@<TRIPOS>ATOM
      1 C1         10.4703   66.4323    4.4589 C.3         1 XBV       0.1199
      2 C2          9.4100   66.2828    3.3078 C.3         1 XBV       0.1186
      3 C3          9.1896   67.7376    2.8111 C.3         1 XBV      -0.0085
      4 N4         10.5159   68.3717    2.9807 N.4         1 XBV       0.2432
      5 C5         11.0357   67.8755    4.2766 C.3         1 XBV      -0.0084
      6 C6         11.5577   65.4483    4.5550 C.2         1 XBV       0.2190
      7 C7          8.1568   65.6231    3.6823 C.2         1 XBV       0.2118
      8 N8          7.5297   64.8182    2.8234 N.am        1 XBV      -0.2375
      9 O9          7.6232   65.9505    4.7417 O.2         1 XBV      -0.3856
     10 O10        11.7972   64.6625    3.6466 O.2         1 XBV      -0.3820
     11 N11        12.2881   65.4608    5.6680 N.am        1 XBV      -0.2172
     12 C12        13.4110   64.7668    5.9865 C.ar        1 XBV       0.1394
     13 N13        14.0454   63.9267    5.1220 N.ar        1 XBV      -0.2842
     14 C14        15.7574   63.4141    6.7183 C.ar        1 XBV       0.0509
     15 C15        15.1420   64.2815    7.6362 C.ar        1 XBV      -0.0424
     16 C16        15.1838   63.2568    5.4399 C.ar        1 XBV       0.0070
     17 C17        13.9631   64.9635    7.2719 C.ar        1 XBV      -0.0126
     18 CL1        17.1729   62.5861    7.1335 Cl          1 XBV      -0.0753
     19 C19         6.3304   64.1918    3.0320 C.ar        1 XBV       0.0920
     20 C20         5.4468   64.0924    1.9352 C.ar        1 XBV      -0.0478
     21 C21         3.8205   62.8949    3.3112 C.ar        1 XBV       0.0960
     22 C22         4.7207   62.9504    4.3992 C.ar        1 XBV      -0.0056
     23 C23         4.1937   63.4695    2.0801 C.ar        1 XBV      -0.0431
     24 C24         5.9701   63.5819    4.2620 C.ar        1 XBV       0.1465
     25 N25         2.6017   62.2797    3.4483 N.am        1 XBV      -0.1717
     26 C26         1.6471   62.8910    4.2137 C.2         1 XBV       0.0799
     27 C27         0.2002   61.0872    3.8302 C.2         1 XBV      -0.0778
     28 C28         1.1319   60.4766    3.0694 C.2         1 XBV      -0.0111
     29 C29         0.4501   62.2988    4.4031 C.2         1 XBV      -0.0402
     30 C30         2.3514   61.0769    2.8807 C.2         1 XBV       0.2151
     31 O31         3.1809   60.4883    2.1996 O.2         1 XBV      -0.4155
     32 F32         6.7896   63.5730    5.2832 F           1 XBV      -0.1956
     33 C33        10.6428   69.8478    2.7401 C.3         1 XBV       0.0304
     34 C34         9.6406   70.8402    3.4134 C.3         1 XBV       0.2778
     35 F35         8.6485   71.2017    2.5195 F           1 XBV      -0.2034
     36 F36         9.0559   70.3136    4.5508 F           1 XBV      -0.2034
     37 H1          9.9382   66.4071    5.4192 H           1 XBV       0.0628
     38 H2          9.8687   65.7452    2.4664 H           1 XBV       0.0626
     39 H3          8.4357   68.2640    3.4142 H           1 XBV       0.0845
     40 H4          8.8960   67.7445    1.7501 H           1 XBV       0.0845
     41 H5         11.1142   67.9320    2.2744 H           1 XBV       0.2039
     42 H6         12.1422   67.9210    4.2392 H           1 XBV       0.0845
     43 H7         10.6718   68.4951    5.1072 H           1 XBV       0.0845
     44 H8          7.8979   64.7793    1.9197 H           1 XBV       0.2221
     45 H9         11.9758   66.0745    6.3513 H           1 XBV       0.2314
     46 H10        15.5344   64.4236    8.5726 H           1 XBV       0.0697
     47 H11        15.6135   62.6391    4.7483 H           1 XBV       0.0781
     48 H12        13.5181   65.5962    7.9431 H           1 XBV       0.0598
     49 H13         5.6945   64.5231    1.0425 H           1 XBV       0.0473
     50 H14         4.4621   62.5176    5.2888 H           1 XBV       0.0513
     51 H15         3.5639   63.4292    1.2772 H           1 XBV       0.0496
     52 H16         1.8193   63.7718    4.6492 H           1 XBV       0.1228
     53 H17        -0.6819   60.6520    3.9701 H           1 XBV       0.0636
     54 H18         0.9327   59.5921    2.6634 H           1 XBV       0.0399
     55 H19        -0.2456   62.7432    4.9606 H           1 XBV       0.0371
     56 H20        10.5828   69.9885    1.6524 H           1 XBV       0.0871
     57 H21        11.6590   70.1438    3.0383 H           1 XBV       0.0871
     58 H22        10.1922   71.7489    3.7024 H           1 XBV       0.1075
@<TRIPOS>BOND
     1     2     1   1
     2     1     5   1
     3     1     6   1
     4     2     3   1
     5     7     2   1
     6     3     4   1
     7     4     5   1
     8     4    33   1
     9     6    10   2
    10     6    11  am
    11     8     7  am
    12     7     9   2
    13    19     8   1
    14    11    12   1
    15    12    13  ar
    16    12    17  ar
    17    13    16  ar
    18    15    14  ar
    19    16    14  ar
    20    14    18   1
    21    17    15  ar
    22    20    19  ar
    23    24    19  ar
    24    23    20  ar
    25    21    22  ar
    26    21    23  ar
    27    25    21   1
    28    22    24  ar
    29    24    32   1
    30    26    25   1
    31    25    30  am
    32    29    26   2
    33    27    28   2
    34    27    29   1
    35    28    30   1
    36    30    31   2
    37    33    34   1
    38    34    35   1
    39    34    36   1
    40     1    37   1
    41     2    38   1
    42     3    39   1
    43     3    40   1
    44     4    41   1
    45     5    42   1
    46     5    43   1
    47     8    44   1
    48    11    45   1
    49    15    46   1
    50    16    47   1
    51    17    48   1
    52    20    49   1
    53    22    50   1
    54    23    51   1
    55    26    52   1
    56    27    53   1
    57    28    54   1
    58    29    55   1
    59    33    56   1
    60    33    57   1
    61    34    58   1
@<TRIPOS>SUBSTRUCTURE
     1  XBV      1

