@<TRIPOS>MOLECULE
2xbv_ligand_010
    58    61
SMALL
GAST_HUCK
****
This file was generated by PARSER (from files_GN.cpp)

@<TRIPOS>ATOM
      1 C1         12.4095   65.1834    2.4901 C.3         1 XBV       0.1199
      2 C2         10.9838   64.7755    3.0031 C.3         1 XBV       0.1186
      3 C3         10.6377   63.4643    2.2420 C.3         1 XBV      -0.0085
      4 N4         11.7508   63.1981    1.3024 N.4         1 XBV       0.2432
      5 C5         12.4042   64.5137    1.0888 C.3         1 XBV      -0.0084
      6 C6         13.5266   64.8021    3.3694 C.2         1 XBV       0.2190
      7 C7          9.9379   65.7893    2.8207 C.2         1 XBV       0.2118
      8 N8          8.9721   65.9127    3.7258 N.am        1 XBV      -0.2375
      9 O9          9.9344   66.4747    1.8018 O.2         1 XBV      -0.3856
     10 O10        14.5732   64.3936    2.8760 O.2         1 XBV      -0.3820
     11 N11        13.4381   65.0266    4.6773 N.am        1 XBV      -0.2172
     12 C12        14.3537   64.7788    5.6512 C.ar        1 XBV       0.1394
     13 N13        15.6091   64.3134    5.3953 N.ar        1 XBV      -0.2842
     14 C14        16.1767   64.2558    7.7128 C.ar        1 XBV       0.0509
     15 C15        14.8936   64.7436    8.0224 C.ar        1 XBV      -0.0424
     16 C16        16.5199   64.0458    6.3656 C.ar        1 XBV       0.0070
     17 C17        13.9775   65.0113    6.9883 C.ar        1 XBV      -0.0126
     18 CL1        17.3013   63.9379    8.9330 Cl          1 XBV      -0.0753
     19 C19         7.8892   66.7358    3.6392 C.ar        1 XBV       0.0920
     20 C20         7.8743   67.8883    4.4489 C.ar        1 XBV      -0.0478
     21 C21         5.6781   68.5156    3.5689 C.ar        1 XBV       0.0960
     22 C22         5.6856   67.3501    2.7676 C.ar        1 XBV      -0.0056
     23 C23         6.7855   68.7728    4.4079 C.ar        1 XBV      -0.0431
     24 C24         6.7811   66.4647    2.7983 C.ar        1 XBV       0.1465
     25 N25         4.6086   69.3817    3.5424 N.am        1 XBV      -0.1717
     26 C26         4.3212   70.0390    2.3765 C.2         1 XBV       0.0799
     27 C27         2.5489   71.1436    3.4361 C.2         1 XBV      -0.0778
     28 C28         2.8186   70.5037    4.5925 C.2         1 XBV      -0.0111
     29 C29         3.3032   70.9155    2.3214 C.2         1 XBV      -0.0402
     30 C30         3.8634   69.6152    4.6466 C.2         1 XBV       0.2151
     31 O31         4.0623   69.0350    5.7097 O.2         1 XBV      -0.4155
     32 F32         6.7439   65.3828    2.0659 F           1 XBV      -0.1956
     33 C33        11.4140   62.3469    0.1156 C.3         1 XBV       0.0304
     34 C34        10.9411   63.0263   -1.1983 C.3         1 XBV       0.2778
     35 F35         9.9207   63.9142   -0.9698 F           1 XBV      -0.2034
     36 F36        11.9645   63.6803   -1.8458 F           1 XBV      -0.2034
     37 H1         12.4896   66.2714    2.3752 H           1 XBV       0.0628
     38 H2         11.0261   64.5332    4.0680 H           1 XBV       0.0626
     39 H3          9.6742   63.5196    1.7229 H           1 XBV       0.0845
     40 H4         10.5811   62.6276    2.9411 H           1 XBV       0.0845
     41 H5         12.4240   62.6330    1.8344 H           1 XBV       0.2039
     42 H6         13.4026   64.3982    0.6617 H           1 XBV       0.0845
     43 H7         11.8197   65.1438    0.4137 H           1 XBV       0.0845
     44 H8          9.0660   65.4027    4.5510 H           1 XBV       0.2221
     45 H9         12.5943   65.3953    4.9868 H           1 XBV       0.2314
     46 H10        14.6230   64.9285    8.9911 H           1 XBV       0.0697
     47 H11        17.4440   63.7024    6.1058 H           1 XBV       0.0781
     48 H12        13.0407   65.3573    7.2158 H           1 XBV       0.0598
     49 H13         8.6764   68.1006    5.0517 H           1 XBV       0.0473
     50 H14         4.8850   67.1369    2.1687 H           1 XBV       0.0513
     51 H15         6.8052   69.6145    4.9911 H           1 XBV       0.0496
     52 H16         4.8659   69.8884    1.5555 H           1 XBV       0.1228
     53 H17         1.7915   71.7866    3.3945 H           1 XBV       0.0636
     54 H18         2.2561   70.6813    5.3944 H           1 XBV       0.0399
     55 H19         3.0990   71.4008    1.4765 H           1 XBV       0.0371
     56 H20        10.6214   61.6501    0.4136 H           1 XBV       0.0871
     57 H21        12.2795   61.7219   -0.1126 H           1 XBV       0.0871
     58 H22        10.5672   62.2564   -1.8708 H           1 XBV       0.1075
@<TRIPOS>BOND
     1     2     1   1
     2     1     5   1
     3     1     6   1
     4     2     3   1
     5     7     2   1
     6     3     4   1
     7     4     5   1
     8     4    33   1
     9     6    10   2
    10     6    11  am
    11     8     7  am
    12     7     9   2
    13    19     8   1
    14    11    12   1
    15    12    13  ar
    16    12    17  ar
    17    13    16  ar
    18    15    14  ar
    19    16    14  ar
    20    14    18   1
    21    17    15  ar
    22    20    19  ar
    23    24    19  ar
    24    23    20  ar
    25    21    22  ar
    26    21    23  ar
    27    25    21   1
    28    22    24  ar
    29    24    32   1
    30    26    25   1
    31    25    30  am
    32    29    26   2
    33    27    28   2
    34    27    29   1
    35    28    30   1
    36    30    31   2
    37    33    34   1
    38    34    35   1
    39    34    36   1
    40     1    37   1
    41     2    38   1
    42     3    39   1
    43     3    40   1
    44     4    41   1
    45     5    42   1
    46     5    43   1
    47     8    44   1
    48    11    45   1
    49    15    46   1
    50    16    47   1
    51    17    48   1
    52    20    49   1
    53    22    50   1
    54    23    51   1
    55    26    52   1
    56    27    53   1
    57    28    54   1
    58    29    55   1
    59    33    56   1
    60    33    57   1
    61    34    58   1
@<TRIPOS>SUBSTRUCTURE
     1  XBV      1

