@<TRIPOS>MOLECULE
2xbv_ligand_052
    58    61
SMALL
GAST_HUCK
****
This file was generated by PARSER (from files_GN.cpp)

@<TRIPOS>ATOM
      1 C1          7.0992   61.9369    3.0449 C.3         1 XBV       0.1199
      2 C2          7.5806   60.4676    2.9359 C.3         1 XBV       0.1186
      3 C3          8.6254   60.5906    1.8086 C.3         1 XBV      -0.0085
      4 N4          9.3614   61.8430    2.1271 N.4         1 XBV       0.2432
      5 C5          8.4187   62.7345    2.8679 C.3         1 XBV      -0.0084
      6 C6          6.3390   62.2582    4.2539 C.2         1 XBV       0.2190
      7 C7          6.5350   59.4765    2.6886 C.2         1 XBV       0.2118
      8 N8          6.3743   58.4705    3.5410 N.am        1 XBV      -0.2375
      9 O9          5.8677   59.5678    1.6674 O.2         1 XBV      -0.3856
     10 O10         6.8698   62.0867    5.3430 O.2         1 XBV      -0.3820
     11 N11         5.1013   62.7385    4.1368 N.am        1 XBV      -0.2172
     12 C12         4.2311   63.1059    5.1104 C.ar        1 XBV       0.1394
     13 N13         4.5165   63.0195    6.4371 N.ar        1 XBV      -0.2842
     14 C14         2.3767   63.8706    7.0752 C.ar        1 XBV       0.0509
     15 C15         2.0383   63.9813    5.7173 C.ar        1 XBV      -0.0424
     16 C16         3.6483   63.3786    7.4193 C.ar        1 XBV       0.0070
     17 C17         2.9656   63.5965    4.7250 C.ar        1 XBV      -0.0126
     18 CL1         1.2753   64.3212    8.2818 Cl          1 XBV      -0.0753
     19 C19         5.4763   57.4341    3.4977 C.ar        1 XBV       0.0920
     20 C20         4.1643   57.5660    2.9981 C.ar        1 XBV      -0.0478
     21 C21         3.6532   55.2143    3.5647 C.ar        1 XBV       0.0960
     22 C22         4.9870   55.1006    4.0290 C.ar        1 XBV      -0.0056
     23 C23         3.2682   56.4833    3.0367 C.ar        1 XBV      -0.0431
     24 C24         5.8754   56.1926    4.0354 C.ar        1 XBV       0.1465
     25 N25         2.7655   54.1278    3.5928 N.am        1 XBV      -0.1717
     26 C26         1.9014   53.9188    2.5340 C.2         1 XBV       0.0799
     27 C27         1.0791   51.9733    3.5333 C.2         1 XBV      -0.0778
     28 C28         1.8887   52.1566    4.5896 C.2         1 XBV      -0.0111
     29 C29         1.0668   52.8659    2.5016 C.2         1 XBV      -0.0402
     30 C30         2.7139   53.2504    4.6378 C.2         1 XBV       0.2151
     31 O31         3.3493   53.3982    5.6768 O.2         1 XBV      -0.4155
     32 F32         7.0663   56.0207    4.5360 F           1 XBV      -0.1956
     33 C33        10.1417   62.4569    1.0010 C.3         1 XBV       0.0304
     34 C34        11.5639   62.8627    1.4586 C.3         1 XBV       0.2778
     35 F35        12.1940   63.5813    0.4638 F           1 XBV      -0.2034
     36 F36        11.5338   63.6403    2.5904 F           1 XBV      -0.2034
     37 H1          6.4769   62.1502    2.1640 H           1 XBV       0.0628
     38 H2          8.1215   60.2039    3.8551 H           1 XBV       0.0626
     39 H3          8.1377   60.6662    0.8271 H           1 XBV       0.0845
     40 H4          9.3069   59.7372    1.8027 H           1 XBV       0.0845
     41 H5         10.0520   61.5533    2.8182 H           1 XBV       0.2039
     42 H6          8.8709   62.9671    3.8310 H           1 XBV       0.0845
     43 H7          8.2050   63.6761    2.3603 H           1 XBV       0.0845
     44 H8          7.0222   58.4172    4.2650 H           1 XBV       0.2221
     45 H9          4.7784   62.8417    3.2278 H           1 XBV       0.2314
     46 H10         1.1205   64.3389    5.4381 H           1 XBV       0.0697
     47 H11         3.9284   63.2790    8.3945 H           1 XBV       0.0781
     48 H12         2.7097   63.6812    3.7398 H           1 XBV       0.0598
     49 H13         3.8251   58.4620    2.6393 H           1 XBV       0.0473
     50 H14         5.3368   54.2035    4.3754 H           1 XBV       0.0513
     51 H15         2.3169   56.6399    2.6991 H           1 XBV       0.0496
     52 H16         1.8760   54.5388    1.7522 H           1 XBV       0.1228
     53 H17         0.4829   51.1758    3.4974 H           1 XBV       0.0636
     54 H18         1.8817   51.4884    5.3304 H           1 XBV       0.0399
     55 H19         0.4481   52.7298    1.7314 H           1 XBV       0.0371
     56 H20         9.6263   63.3320    0.5914 H           1 XBV       0.0871
     57 H21        10.2597   61.7504    0.1752 H           1 XBV       0.0871
     58 H22        12.1579   61.9722    1.6622 H           1 XBV       0.1075
@<TRIPOS>BOND
     1     2     1   1
     2     1     5   1
     3     1     6   1
     4     2     3   1
     5     7     2   1
     6     3     4   1
     7     4     5   1
     8     4    33   1
     9     6    10   2
    10     6    11  am
    11     8     7  am
    12     7     9   2
    13    19     8   1
    14    11    12   1
    15    12    13  ar
    16    12    17  ar
    17    13    16  ar
    18    15    14  ar
    19    16    14  ar
    20    14    18   1
    21    17    15  ar
    22    20    19  ar
    23    24    19  ar
    24    23    20  ar
    25    21    22  ar
    26    21    23  ar
    27    25    21   1
    28    22    24  ar
    29    24    32   1
    30    26    25   1
    31    25    30  am
    32    29    26   2
    33    27    28   2
    34    27    29   1
    35    28    30   1
    36    30    31   2
    37    33    34   1
    38    34    35   1
    39    34    36   1
    40     1    37   1
    41     2    38   1
    42     3    39   1
    43     3    40   1
    44     4    41   1
    45     5    42   1
    46     5    43   1
    47     8    44   1
    48    11    45   1
    49    15    46   1
    50    16    47   1
    51    17    48   1
    52    20    49   1
    53    22    50   1
    54    23    51   1
    55    26    52   1
    56    27    53   1
    57    28    54   1
    58    29    55   1
    59    33    56   1
    60    33    57   1
    61    34    58   1
@<TRIPOS>SUBSTRUCTURE
     1  XBV      1

