@<TRIPOS>MOLECULE
2xbv_ligand_018
    58    61
SMALL
GAST_HUCK
****
This file was generated by PARSER (from files_GN.cpp)

@<TRIPOS>ATOM
      1 C1         11.6719   67.2721    3.4184 C.3         1 XBV       0.1199
      2 C2         10.3119   67.2101    4.2004 C.3         1 XBV       0.1186
      3 C3          9.4242   66.2148    3.3953 C.3         1 XBV      -0.0085
      4 N4         10.2017   65.8146    2.2013 N.4         1 XBV       0.2432
      5 C5         11.2166   66.8663    1.9881 C.3         1 XBV      -0.0084
      6 C6         12.7697   66.4499    3.9500 C.2         1 XBV       0.2190
      7 C7          9.7018   68.5296    4.4005 C.2         1 XBV       0.2118
      8 N8          9.2731   69.2278    3.3563 N.am        1 XBV      -0.2375
      9 O9          9.6968   69.0107    5.5262 O.2         1 XBV      -0.3856
     10 O10        13.6368   66.0463    3.1817 O.2         1 XBV      -0.3820
     11 N11        12.9504   66.3058    5.2603 N.am        1 XBV      -0.2172
     12 C12        13.8811   65.5848    5.9311 C.ar        1 XBV       0.1394
     13 N13        14.8475   64.8475    5.3131 N.ar        1 XBV      -0.2842
     14 C14        15.7523   64.0771    7.3877 C.ar        1 XBV       0.0509
     15 C15        14.7656   64.8152    8.0676 C.ar        1 XBV      -0.0424
     16 C16        15.7694   64.1096    5.9822 C.ar        1 XBV       0.0070
     17 C17        13.8292   65.5744    7.3414 C.ar        1 XBV      -0.0126
     18 CL1        16.9098   63.1825    8.2367 Cl          1 XBV      -0.0753
     19 C19         8.7109   70.4741    3.3048 C.ar        1 XBV       0.0920
     20 C20         7.8707   71.0006    4.3154 C.ar        1 XBV      -0.0478
     21 C21         7.5331   73.0529    3.0229 C.ar        1 XBV       0.0960
     22 C22         8.3547   72.5203    2.0046 C.ar        1 XBV      -0.0056
     23 C23         7.2918   72.2764    4.1777 C.ar        1 XBV      -0.0431
     24 C24         8.9263   71.2409    2.1370 C.ar        1 XBV       0.1465
     25 N25         6.9816   74.3074    2.8845 N.am        1 XBV      -0.1717
     26 C26         7.8185   75.3904    2.8778 C.2         1 XBV       0.0799
     27 C27         5.9782   76.8088    2.5929 C.2         1 XBV      -0.0778
     28 C28         5.1406   75.7515    2.5922 C.2         1 XBV      -0.0111
     29 C29         7.3223   76.6346    2.7386 C.2         1 XBV      -0.0402
     30 C30         5.6482   74.4859    2.7425 C.2         1 XBV       0.2151
     31 O31         4.8582   73.5484    2.7086 O.2         1 XBV      -0.4155
     32 F32         9.6827   70.7953    1.1662 F           1 XBV      -0.1956
     33 C33         9.4468   65.3649    0.9939 C.3         1 XBV       0.0304
     34 C34         8.4191   66.3599    0.3736 C.3         1 XBV       0.2778
     35 F35         8.3913   66.2551   -0.9988 F           1 XBV      -0.2034
     36 F36         7.1452   66.1158    0.8288 F           1 XBV      -0.2034
     37 H1         12.0569   68.2972    3.3817 H           1 XBV       0.0628
     38 H2         10.4438   66.7670    5.1902 H           1 XBV       0.0626
     39 H3          8.4600   66.6552    3.1376 H           1 XBV       0.0845
     40 H4          9.2199   65.3160    3.9881 H           1 XBV       0.0845
     41 H5         10.7436   64.9985    2.4938 H           1 XBV       0.2039
     42 H6         12.0264   66.4953    1.3579 H           1 XBV       0.0845
     43 H7         10.8031   67.7375    1.4796 H           1 XBV       0.0845
     44 H8          9.4202   68.8127    2.4945 H           1 XBV       0.2221
     45 H9         12.3019   66.7404    5.8307 H           1 XBV       0.2314
     46 H10        14.7355   64.8264    9.0882 H           1 XBV       0.0697
     47 H11        16.4642   63.5821    5.4551 H           1 XBV       0.0781
     48 H12        13.1198   66.1157    7.8434 H           1 XBV       0.0598
     49 H13         7.6504   70.4519    5.1481 H           1 XBV       0.0473
     50 H14         8.5299   73.0641    1.1552 H           1 XBV       0.0513
     51 H15         6.6930   72.6376    4.9252 H           1 XBV       0.0496
     52 H16         8.8038   75.2800    2.9770 H           1 XBV       0.1228
     53 H17         5.6126   77.7259    2.4798 H           1 XBV       0.0636
     54 H18         4.1636   75.8992    2.4765 H           1 XBV       0.0399
     55 H19         7.9299   77.4215    2.7352 H           1 XBV       0.0371
     56 H20         8.9314   64.4400    1.2542 H           1 XBV       0.0871
     57 H21        10.1887   65.0923    0.2370 H           1 XBV       0.0871
     58 H22         8.6604   67.3962    0.6182 H           1 XBV       0.1075
@<TRIPOS>BOND
     1     2     1   1
     2     1     5   1
     3     1     6   1
     4     2     3   1
     5     7     2   1
     6     3     4   1
     7     4     5   1
     8     4    33   1
     9     6    10   2
    10     6    11  am
    11     8     7  am
    12     7     9   2
    13    19     8   1
    14    11    12   1
    15    12    13  ar
    16    12    17  ar
    17    13    16  ar
    18    15    14  ar
    19    16    14  ar
    20    14    18   1
    21    17    15  ar
    22    20    19  ar
    23    24    19  ar
    24    23    20  ar
    25    21    22  ar
    26    21    23  ar
    27    25    21   1
    28    22    24  ar
    29    24    32   1
    30    26    25   1
    31    25    30  am
    32    29    26   2
    33    27    28   2
    34    27    29   1
    35    28    30   1
    36    30    31   2
    37    33    34   1
    38    34    35   1
    39    34    36   1
    40     1    37   1
    41     2    38   1
    42     3    39   1
    43     3    40   1
    44     4    41   1
    45     5    42   1
    46     5    43   1
    47     8    44   1
    48    11    45   1
    49    15    46   1
    50    16    47   1
    51    17    48   1
    52    20    49   1
    53    22    50   1
    54    23    51   1
    55    26    52   1
    56    27    53   1
    57    28    54   1
    58    29    55   1
    59    33    56   1
    60    33    57   1
    61    34    58   1
@<TRIPOS>SUBSTRUCTURE
     1  XBV      1

