@<TRIPOS>MOLECULE
2xbv_ligand_040
    58    61
SMALL
GAST_HUCK
****
This file was generated by PARSER (from files_GN.cpp)

@<TRIPOS>ATOM
      1 C1         10.5736   66.8702    2.5294 C.3         1 XBV       0.1199
      2 C2         10.1473   68.0755    3.4417 C.3         1 XBV       0.1186
      3 C3          8.9190   67.5018    4.2286 C.3         1 XBV      -0.0085
      4 N4          8.7417   66.0687    3.8571 N.4         1 XBV       0.2432
      5 C5          9.3300   65.9554    2.5087 C.3         1 XBV      -0.0084
      6 C6         11.7812   66.1561    2.9737 C.2         1 XBV       0.2190
      7 C7          9.9066   69.3311    2.7183 C.2         1 XBV       0.2118
      8 N8          9.0323   70.2238    3.1682 N.am        1 XBV      -0.2375
      9 O9         10.6918   69.6795    1.8454 O.2         1 XBV      -0.3856
     10 O10        12.6159   65.8581    2.1237 O.2         1 XBV      -0.3820
     11 N11        11.9561   65.8420    4.2561 N.am        1 XBV      -0.2172
     12 C12        12.9443   65.1070    4.8256 C.ar        1 XBV       0.1394
     13 N13        13.9026   64.4525    4.1047 N.ar        1 XBV      -0.2842
     14 C14        14.9664   63.5937    6.0662 C.ar        1 XBV       0.0509
     15 C15        14.0024   64.2563    6.8507 C.ar        1 XBV      -0.0424
     16 C16        14.8922   63.7139    4.6660 C.ar        1 XBV       0.0070
     17 C17        12.9850   65.0045    6.2315 C.ar        1 XBV      -0.0126
     18 CL1        16.2031   62.6972    6.7954 Cl          1 XBV      -0.0753
     19 C19         8.6384   71.4158    2.6003 C.ar        1 XBV       0.0920
     20 C20         8.1721   72.4179    3.4794 C.ar        1 XBV      -0.0478
     21 C21         7.6017   73.8912    1.5965 C.ar        1 XBV       0.0960
     22 C22         8.0494   72.8788    0.7201 C.ar        1 XBV      -0.0056
     23 C23         7.6820   73.6411    2.9880 C.ar        1 XBV      -0.0431
     24 C24         8.5513   71.6554    1.2074 C.ar        1 XBV       0.1465
     25 N25         7.0489   75.0643    1.0972 N.am        1 XBV      -0.1717
     26 C26         5.9166   75.5635    1.6977 C.2         1 XBV       0.0799
     27 C27         5.8476   77.3204    0.1428 C.2         1 XBV      -0.0778
     28 C28         6.9546   76.8419   -0.4620 C.2         1 XBV      -0.0111
     29 C29         5.3265   76.6831    1.2321 C.2         1 XBV      -0.0402
     30 C30         7.5678   75.7155    0.0240 C.2         1 XBV       0.2151
     31 O31         8.5864   75.3299   -0.5354 O.2         1 XBV      -0.4155
     32 F32         8.8915   70.7313    0.3472 F           1 XBV      -0.1956
     33 C33         7.3506   65.5415    4.0185 C.3         1 XBV       0.0304
     34 C34         7.1335   64.1135    3.4380 C.3         1 XBV       0.2778
     35 F35         8.1395   63.2518    3.8240 F           1 XBV      -0.2034
     36 F36         5.9251   63.6108    3.8785 F           1 XBV      -0.2034
     37 H1         10.7382   67.1988    1.4929 H           1 XBV       0.0628
     38 H2         10.9380   68.3059    4.1650 H           1 XBV       0.0626
     39 H3          8.0022   68.0623    4.0018 H           1 XBV       0.0845
     40 H4          9.0987   67.5581    5.3056 H           1 XBV       0.0845
     41 H5          9.3244   65.5214    4.4969 H           1 XBV       0.2039
     42 H6          9.5936   64.9178    2.2725 H           1 XBV       0.0845
     43 H7          8.6237   66.3177    1.7495 H           1 XBV       0.0845
     44 H8          8.6417   70.0308    4.0430 H           1 XBV       0.2221
     45 H9         11.2922   66.1887    4.8745 H           1 XBV       0.2314
     46 H10        14.0334   64.1902    7.8718 H           1 XBV       0.0697
     47 H11        15.5706   63.2417    4.0616 H           1 XBV       0.0781
     48 H12        12.2832   65.4756    6.8099 H           1 XBV       0.0598
     49 H13         8.1786   72.2628    4.4972 H           1 XBV       0.0473
     50 H14         7.9677   73.0071   -0.2892 H           1 XBV       0.0513
     51 H15         7.3830   74.3674    3.6552 H           1 XBV       0.0496
     52 H16         5.5035   75.1079    2.4862 H           1 XBV       0.1228
     53 H17         5.4155   78.1439   -0.2017 H           1 XBV       0.0636
     54 H18         7.3288   77.3220   -1.2514 H           1 XBV       0.0399
     55 H19         4.5109   77.0495    1.6748 H           1 XBV       0.0371
     56 H20         6.6304   66.2237    3.5476 H           1 XBV       0.0871
     57 H21         7.1314   65.5085    5.0910 H           1 XBV       0.0871
     58 H22         7.1041   64.1668    2.3406 H           1 XBV       0.1075
@<TRIPOS>BOND
     1     2     1   1
     2     1     5   1
     3     1     6   1
     4     2     3   1
     5     7     2   1
     6     3     4   1
     7     4     5   1
     8     4    33   1
     9     6    10   2
    10     6    11  am
    11     8     7  am
    12     7     9   2
    13    19     8   1
    14    11    12   1
    15    12    13  ar
    16    12    17  ar
    17    13    16  ar
    18    15    14  ar
    19    16    14  ar
    20    14    18   1
    21    17    15  ar
    22    20    19  ar
    23    24    19  ar
    24    23    20  ar
    25    21    22  ar
    26    21    23  ar
    27    25    21   1
    28    22    24  ar
    29    24    32   1
    30    26    25   1
    31    25    30  am
    32    29    26   2
    33    27    28   2
    34    27    29   1
    35    28    30   1
    36    30    31   2
    37    33    34   1
    38    34    35   1
    39    34    36   1
    40     1    37   1
    41     2    38   1
    42     3    39   1
    43     3    40   1
    44     4    41   1
    45     5    42   1
    46     5    43   1
    47     8    44   1
    48    11    45   1
    49    15    46   1
    50    16    47   1
    51    17    48   1
    52    20    49   1
    53    22    50   1
    54    23    51   1
    55    26    52   1
    56    27    53   1
    57    28    54   1
    58    29    55   1
    59    33    56   1
    60    33    57   1
    61    34    58   1
@<TRIPOS>SUBSTRUCTURE
     1  XBV      1

