@<TRIPOS>MOLECULE
2xbv_ligand_079
    58    61
SMALL
GAST_HUCK
****
This file was generated by PARSER (from files_GN.cpp)

@<TRIPOS>ATOM
      1 C1         10.5862   64.3998   -0.0881 C.3         1 XBV       0.1199
      2 C2          9.2935   63.5480   -0.0497 C.3         1 XBV       0.1186
      3 C3          8.8046   63.6444   -1.5133 C.3         1 XBV      -0.0085
      4 N4         10.0457   63.5289   -2.3201 N.4         1 XBV       0.2432
      5 C5         11.1485   64.1055   -1.5112 C.3         1 XBV      -0.0084
      6 C6         11.4949   64.2107    1.0461 C.2         1 XBV       0.2190
      7 C7          8.2785   63.9646    0.9300 C.2         1 XBV       0.2118
      8 N8          7.9699   63.1633    1.9398 N.am        1 XBV      -0.2375
      9 O9          7.7832   65.0768    0.8154 O.2         1 XBV      -0.3856
     10 O10        12.5804   63.6757    0.8695 O.2         1 XBV      -0.3820
     11 N11        11.1663   64.7139    2.2348 N.am        1 XBV      -0.2172
     12 C12        11.9030   64.7271    3.3791 C.ar        1 XBV       0.1394
     13 N13        13.1379   64.1549    3.4789 N.ar        1 XBV      -0.2842
     14 C14        13.4019   64.8156    5.7538 C.ar        1 XBV       0.0509
     15 C15        12.1342   65.4256    5.6988 C.ar        1 XBV      -0.0424
     16 C16        13.8900   64.1722    4.6047 C.ar        1 XBV       0.0070
     17 C17        11.3801   65.3810    4.5117 C.ar        1 XBV      -0.0126
     18 CL1        14.3208   64.8625    7.1727 Cl          1 XBV      -0.0753
     19 C19         7.0626   63.3816    2.9455 C.ar        1 XBV       0.0920
     20 C20         7.4500   63.0113    4.2514 C.ar        1 XBV      -0.0478
     21 C21         5.3265   63.8322    5.1532 C.ar        1 XBV       0.0960
     22 C22         4.9123   64.1469    3.8385 C.ar        1 XBV      -0.0056
     23 C23         6.5960   63.2385    5.3426 C.ar        1 XBV      -0.0431
     24 C24         5.7687   63.9161    2.7434 C.ar        1 XBV       0.1465
     25 N25         4.5159   64.0949    6.2348 N.am        1 XBV      -0.1717
     26 C26         4.9701   64.9465    7.2068 C.2         1 XBV       0.0799
     27 C27         3.0327   64.5518    8.4584 C.2         1 XBV      -0.0778
     28 C28         2.5559   63.7371    7.4961 C.2         1 XBV      -0.0111
     29 C29         4.2384   65.1704    8.3146 C.2         1 XBV      -0.0402
     30 C30         3.3007   63.5086    6.3688 C.2         1 XBV       0.2151
     31 O31         2.8451   62.7470    5.5240 O.2         1 XBV      -0.4155
     32 F32         5.3132   64.1787    1.5483 F           1 XBV      -0.1956
     33 C33         9.9942   63.9030   -3.7692 C.3         1 XBV       0.0304
     34 C34         9.5608   65.3507   -4.1461 C.3         1 XBV       0.2778
     35 F35         9.9878   66.3018   -3.2545 F           1 XBV      -0.2034
     36 F36        10.0585   65.6832   -5.3821 F           1 XBV      -0.2034
     37 H1         10.2947   65.4588   -0.0854 H           1 XBV       0.0628
     38 H2          9.5730   62.5013    0.1398 H           1 XBV       0.0626
     39 H3          8.3102   64.6036   -1.6932 H           1 XBV       0.0845
     40 H4          8.1101   62.8348   -1.7518 H           1 XBV       0.0845
     41 H5         10.2330   62.5234   -2.3336 H           1 XBV       0.2039
     42 H6         11.9325   63.3442   -1.4957 H           1 XBV       0.0845
     43 H7         11.5823   65.0123   -1.9385 H           1 XBV       0.0845
     44 H8          8.5062   62.3593    2.0316 H           1 XBV       0.2221
     45 H9         10.3000   65.1502    2.2867 H           1 XBV       0.2314
     46 H10        11.7543   65.9033    6.5185 H           1 XBV       0.0697
     47 H11        14.8066   63.7201    4.6042 H           1 XBV       0.0781
     48 H12        10.4600   65.8296    4.4782 H           1 XBV       0.0598
     49 H13         8.3718   62.5986    4.4271 H           1 XBV       0.0473
     50 H14         3.9913   64.5622    3.6826 H           1 XBV       0.0513
     51 H15         6.9064   62.9861    6.2864 H           1 XBV       0.0496
     52 H16         5.8439   65.4187    7.1075 H           1 XBV       0.1228
     53 H17         2.4983   64.7106    9.2789 H           1 XBV       0.0636
     54 H18         1.6705   63.3008    7.6161 H           1 XBV       0.0399
     55 H19         4.5779   65.7818    9.0198 H           1 XBV       0.0371
     56 H20         9.3075   63.2121   -4.2664 H           1 XBV       0.0871
     57 H21        10.9833   63.7077   -4.1965 H           1 XBV       0.0871
     58 H22         8.4730   65.3972   -4.1976 H           1 XBV       0.1075
@<TRIPOS>BOND
     1     2     1   1
     2     1     5   1
     3     1     6   1
     4     2     3   1
     5     7     2   1
     6     3     4   1
     7     4     5   1
     8     4    33   1
     9     6    10   2
    10     6    11  am
    11     8     7  am
    12     7     9   2
    13    19     8   1
    14    11    12   1
    15    12    13  ar
    16    12    17  ar
    17    13    16  ar
    18    15    14  ar
    19    16    14  ar
    20    14    18   1
    21    17    15  ar
    22    20    19  ar
    23    24    19  ar
    24    23    20  ar
    25    21    22  ar
    26    21    23  ar
    27    25    21   1
    28    22    24  ar
    29    24    32   1
    30    26    25   1
    31    25    30  am
    32    29    26   2
    33    27    28   2
    34    27    29   1
    35    28    30   1
    36    30    31   2
    37    33    34   1
    38    34    35   1
    39    34    36   1
    40     1    37   1
    41     2    38   1
    42     3    39   1
    43     3    40   1
    44     4    41   1
    45     5    42   1
    46     5    43   1
    47     8    44   1
    48    11    45   1
    49    15    46   1
    50    16    47   1
    51    17    48   1
    52    20    49   1
    53    22    50   1
    54    23    51   1
    55    26    52   1
    56    27    53   1
    57    28    54   1
    58    29    55   1
    59    33    56   1
    60    33    57   1
    61    34    58   1
@<TRIPOS>SUBSTRUCTURE
     1  XBV      1

