@<TRIPOS>MOLECULE
2xbv_ligand_054
    58    61
SMALL
GAST_HUCK
****
This file was generated by PARSER (from files_GN.cpp)

@<TRIPOS>ATOM
      1 C1          2.0260   64.1015    6.5884 C.3         1 XBV       0.1199
      2 C2          3.3946   64.6200    7.1279 C.3         1 XBV       0.1186
      3 C3          3.0276   65.1103    8.5418 C.3         1 XBV      -0.0085
      4 N4          2.1188   64.0542    9.0477 N.4         1 XBV       0.2432
      5 C5          1.3015   63.6335    7.8831 C.3         1 XBV      -0.0084
      6 C6          2.0577   63.0972    5.5211 C.2         1 XBV       0.2190
      7 C7          4.0649   65.6462    6.3213 C.2         1 XBV       0.2118
      8 N8          5.3273   65.4664    5.9446 N.am        1 XBV      -0.2375
      9 O9          3.4381   66.6491    6.0115 O.2         1 XBV      -0.3856
     10 O10         3.1179   62.7925    4.9913 O.2         1 XBV      -0.3820
     11 N11         0.9091   62.5204    5.1848 N.am        1 XBV      -0.2172
     12 C12         0.6587   61.5550    4.2684 C.ar        1 XBV       0.1394
     13 N13         1.6017   61.0653    3.4158 N.ar        1 XBV      -0.2842
     14 C14         0.0581   59.5454    2.4000 C.ar        1 XBV       0.0509
     15 C15        -0.9421   60.0142    3.2732 C.ar        1 XBV      -0.0424
     16 C16         1.3521   60.0975    2.4994 C.ar        1 XBV       0.0070
     17 C17        -0.6505   61.0245    4.2024 C.ar        1 XBV      -0.0126
     18 CL1        -0.2852   58.3461    1.2591 Cl          1 XBV      -0.0753
     19 C19         6.1555   66.3461    5.2908 C.ar        1 XBV       0.0920
     20 C20         6.1421   67.7361    5.5454 C.ar        1 XBV      -0.0478
     21 C21         7.9709   68.0957    3.9662 C.ar        1 XBV       0.0960
     22 C22         8.0206   66.7006    3.7406 C.ar        1 XBV      -0.0056
     23 C23         7.0362   68.5984    4.8959 C.ar        1 XBV      -0.0431
     24 C24         7.1325   65.8301    4.4058 C.ar        1 XBV       0.1465
     25 N25         8.7958   68.9585    3.2712 N.am        1 XBV      -0.1717
     26 C26         8.6117   69.0871    1.9215 C.2         1 XBV       0.0799
     27 C27        10.3138   70.6906    1.8378 C.2         1 XBV      -0.0778
     28 C28        10.5042   70.5839    3.1680 C.2         1 XBV      -0.0111
     29 C29         9.3595   69.9540    1.2055 C.2         1 XBV      -0.0402
     30 C30         9.7307   69.7158    3.8926 C.2         1 XBV       0.2151
     31 O31         9.9241   69.6516    5.1034 O.2         1 XBV      -0.4155
     32 F32         7.2102   64.5485    4.1637 F           1 XBV      -0.1956
     33 C33         1.3691   64.3407   10.3192 C.3         1 XBV       0.0304
     34 C34         1.9561   63.5497   11.5273 C.3         1 XBV       0.2778
     35 F35         2.6927   64.3626   12.3592 F           1 XBV      -0.2034
     36 F36         0.9558   62.9685   12.2814 F           1 XBV      -0.2034
     37 H1          1.4687   64.9575    6.1892 H           1 XBV       0.0628
     38 H2          4.0671   63.7593    7.2470 H           1 XBV       0.0626
     39 H3          2.5174   66.0825    8.5124 H           1 XBV       0.0845
     40 H4          3.9220   65.1884    9.1704 H           1 XBV       0.0845
     41 H5          2.7308   63.2628    9.2485 H           1 XBV       0.2039
     42 H6          1.1983   62.5461    7.9282 H           1 XBV       0.0845
     43 H7          0.2988   64.0743    7.9017 H           1 XBV       0.0845
     44 H8          5.7072   64.5914    6.1266 H           1 XBV       0.2221
     45 H9          0.1368   62.8224    5.6923 H           1 XBV       0.2314
     46 H10        -1.8843   59.6189    3.2358 H           1 XBV       0.0697
     47 H11         2.1021   59.7763    1.8882 H           1 XBV       0.0781
     48 H12        -1.3790   61.3562    4.8359 H           1 XBV       0.0598
     49 H13         5.4937   68.1315    6.2287 H           1 XBV       0.0473
     50 H14         8.7122   66.3154    3.0908 H           1 XBV       0.0513
     51 H15         6.9937   69.6033    5.0903 H           1 XBV       0.0496
     52 H16         7.9033   68.5650    1.4485 H           1 XBV       0.1228
     53 H17        10.8730   71.3143    1.3106 H           1 XBV       0.0636
     54 H18        11.2032   71.1356    3.6092 H           1 XBV       0.0399
     55 H19         9.2000   70.0631    0.2312 H           1 XBV       0.0371
     56 H20         0.3204   64.0569   10.2146 H           1 XBV       0.0871
     57 H21         1.3686   65.4077   10.5562 H           1 XBV       0.0871
     58 H22         2.6088   62.7480   11.1792 H           1 XBV       0.1075
@<TRIPOS>BOND
     1     2     1   1
     2     1     5   1
     3     1     6   1
     4     2     3   1
     5     7     2   1
     6     3     4   1
     7     4     5   1
     8     4    33   1
     9     6    10   2
    10     6    11  am
    11     8     7  am
    12     7     9   2
    13    19     8   1
    14    11    12   1
    15    12    13  ar
    16    12    17  ar
    17    13    16  ar
    18    15    14  ar
    19    16    14  ar
    20    14    18   1
    21    17    15  ar
    22    20    19  ar
    23    24    19  ar
    24    23    20  ar
    25    21    22  ar
    26    21    23  ar
    27    25    21   1
    28    22    24  ar
    29    24    32   1
    30    26    25   1
    31    25    30  am
    32    29    26   2
    33    27    28   2
    34    27    29   1
    35    28    30   1
    36    30    31   2
    37    33    34   1
    38    34    35   1
    39    34    36   1
    40     1    37   1
    41     2    38   1
    42     3    39   1
    43     3    40   1
    44     4    41   1
    45     5    42   1
    46     5    43   1
    47     8    44   1
    48    11    45   1
    49    15    46   1
    50    16    47   1
    51    17    48   1
    52    20    49   1
    53    22    50   1
    54    23    51   1
    55    26    52   1
    56    27    53   1
    57    28    54   1
    58    29    55   1
    59    33    56   1
    60    33    57   1
    61    34    58   1
@<TRIPOS>SUBSTRUCTURE
     1  XBV      1

