@<TRIPOS>MOLECULE
2xbv_ligand_004
    58    61
SMALL
GAST_HUCK
****
This file was generated by PARSER (from files_GN.cpp)

@<TRIPOS>ATOM
      1 C1         10.3545   67.3972    3.8641 C.3         1 XBV       0.1199
      2 C2          9.3074   67.1359    2.7249 C.3         1 XBV       0.1186
      3 C3          9.0018   68.5557    2.1934 C.3         1 XBV      -0.0085
      4 N4         10.2817   69.2644    2.3337 N.4         1 XBV       0.2432
      5 C5         10.8171   68.8719    3.6534 C.3         1 XBV      -0.0084
      6 C6         11.4851   66.4565    3.9062 C.2         1 XBV       0.2190
      7 C7          8.0780   66.4154    3.0569 C.2         1 XBV       0.2118
      8 N8          7.9664   65.6226    4.1174 N.am        1 XBV      -0.2375
      9 O9          7.1533   66.4653    2.2511 O.2         1 XBV      -0.3856
     10 O10        12.1289   66.2575    2.8825 O.2         1 XBV      -0.3820
     11 N11        11.8922   65.9691    5.0783 N.am        1 XBV      -0.2172
     12 C12        12.9161   65.1182    5.3536 C.ar        1 XBV       0.1394
     13 N13        13.6279   64.4623    4.3923 N.ar        1 XBV      -0.2842
     14 C14        15.0246   63.3754    6.0049 C.ar        1 XBV       0.0509
     15 C15        14.3205   64.0348    7.0280 C.ar        1 XBV      -0.0424
     16 C16        14.6485   63.6082    4.6682 C.ar        1 XBV       0.0070
     17 C17        13.2582   64.9002    6.7063 C.ar        1 XBV      -0.0126
     18 CL1        16.2913   62.3200    6.3781 Cl          1 XBV      -0.0753
     19 C19         6.8072   65.0437    4.5552 C.ar        1 XBV       0.0920
     20 C20         5.6667   65.8297    4.8491 C.ar        1 XBV      -0.0478
     21 C21         4.4201   63.8357    5.5248 C.ar        1 XBV       0.0960
     22 C22         5.5628   63.0498    5.2380 C.ar        1 XBV      -0.0056
     23 C23         4.4852   65.2297    5.3307 C.ar        1 XBV      -0.0431
     24 C24         6.7497   63.6516    4.7691 C.ar        1 XBV       0.1465
     25 N25         3.2642   63.2496    5.9763 N.am        1 XBV      -0.1717
     26 C26         3.1652   62.9320    7.3006 C.2         1 XBV       0.0799
     27 C27         1.0110   62.0871    6.9286 C.2         1 XBV      -0.0778
     28 C28         1.0947   62.4024    5.6189 C.2         1 XBV      -0.0111
     29 C29         2.0450   62.3517    7.7786 C.2         1 XBV      -0.0402
     30 C30         2.2358   62.9907    5.1372 C.2         1 XBV       0.2151
     31 O31         2.2829   63.2487    3.9383 O.2         1 XBV      -0.4155
     32 F32         7.7799   62.8905    4.5007 F           1 XBV      -0.1956
     33 C33        10.3032   70.7031    1.9469 C.3         1 XBV       0.0304
     34 C34         9.4374   71.7699    2.6931 C.3         1 XBV       0.2778
     35 F35         8.6529   72.4638    1.8072 F           1 XBV      -0.2034
     36 F36         8.6079   71.2677    3.6554 F           1 XBV      -0.2034
     37 H1          9.8360   67.3646    4.8311 H           1 XBV       0.0628
     38 H2          9.7804   66.5885    1.9082 H           1 XBV       0.0626
     39 H3          8.2095   69.0353    2.7766 H           1 XBV       0.0845
     40 H4          8.7016   68.5242    1.1444 H           1 XBV       0.0845
     41 H5         10.8973   68.8036    1.6626 H           1 XBV       0.2039
     42 H6         11.9047   68.9863    3.6507 H           1 XBV       0.0845
     43 H7         10.4138   69.5149    4.4450 H           1 XBV       0.0845
     44 H8          8.7693   65.3971    4.6139 H           1 XBV       0.2221
     45 H9         11.4110   66.2937    5.8545 H           1 XBV       0.2314
     46 H10        14.5746   63.8933    8.0067 H           1 XBV       0.0697
     47 H11        15.1322   63.1394    3.8977 H           1 XBV       0.0781
     48 H12        12.7524   65.3812    7.4573 H           1 XBV       0.0598
     49 H13         5.6911   66.8432    4.7282 H           1 XBV       0.0473
     50 H14         5.5293   62.0352    5.3713 H           1 XBV       0.0513
     51 H15         3.6760   65.8206    5.5485 H           1 XBV       0.0496
     52 H16         3.9073   63.1268    7.9320 H           1 XBV       0.1228
     53 H17         0.1836   61.6571    7.2801 H           1 XBV       0.0636
     54 H18         0.3291   62.1991    5.0151 H           1 XBV       0.0399
     55 H19         1.9697   62.1208    8.7431 H           1 XBV       0.0371
     56 H20        10.0502   70.7388    0.8845 H           1 XBV       0.0871
     57 H21        11.3442   71.0279    2.0158 H           1 XBV       0.0871
     58 H22        10.0830   72.4980    3.1798 H           1 XBV       0.1075
@<TRIPOS>BOND
     1     2     1   1
     2     1     5   1
     3     1     6   1
     4     2     3   1
     5     7     2   1
     6     3     4   1
     7     4     5   1
     8     4    33   1
     9     6    10   2
    10     6    11  am
    11     8     7  am
    12     7     9   2
    13    19     8   1
    14    11    12   1
    15    12    13  ar
    16    12    17  ar
    17    13    16  ar
    18    15    14  ar
    19    16    14  ar
    20    14    18   1
    21    17    15  ar
    22    20    19  ar
    23    24    19  ar
    24    23    20  ar
    25    21    22  ar
    26    21    23  ar
    27    25    21   1
    28    22    24  ar
    29    24    32   1
    30    26    25   1
    31    25    30  am
    32    29    26   2
    33    27    28   2
    34    27    29   1
    35    28    30   1
    36    30    31   2
    37    33    34   1
    38    34    35   1
    39    34    36   1
    40     1    37   1
    41     2    38   1
    42     3    39   1
    43     3    40   1
    44     4    41   1
    45     5    42   1
    46     5    43   1
    47     8    44   1
    48    11    45   1
    49    15    46   1
    50    16    47   1
    51    17    48   1
    52    20    49   1
    53    22    50   1
    54    23    51   1
    55    26    52   1
    56    27    53   1
    57    28    54   1
    58    29    55   1
    59    33    56   1
    60    33    57   1
    61    34    58   1
@<TRIPOS>SUBSTRUCTURE
     1  XBV      1

