@<TRIPOS>MOLECULE
2xbv_ligand_030
    58    61
SMALL
GAST_HUCK
****
This file was generated by PARSER (from files_GN.cpp)

@<TRIPOS>ATOM
      1 C1         12.2781   65.3191    2.4057 C.3         1 XBV       0.1199
      2 C2         11.0411   64.3448    2.4376 C.3         1 XBV       0.1186
      3 C3         10.6866   64.1539    0.9341 C.3         1 XBV      -0.0085
      4 N4         11.9642   64.3488    0.2018 N.4         1 XBV       0.2432
      5 C5         12.5706   65.5086    0.8916 C.3         1 XBV      -0.0084
      6 C6         13.3733   64.8458    3.2581 C.2         1 XBV       0.2190
      7 C7          9.8978   64.7533    3.2573 C.2         1 XBV       0.2118
      8 N8          8.8332   63.9490    3.3271 N.am        1 XBV      -0.2375
      9 O9          9.9911   65.7250    4.0169 O.2         1 XBV      -0.3856
     10 O10        14.4063   64.3882    2.7660 O.2         1 XBV      -0.3820
     11 N11        13.2162   64.9504    4.5692 N.am        1 XBV      -0.2172
     12 C12        14.0824   64.6449    5.5692 C.ar        1 XBV       0.1394
     13 N13        15.2993   64.0713    5.3327 N.ar        1 XBV      -0.2842
     14 C14        15.8948   64.1278    7.6451 C.ar        1 XBV       0.0509
     15 C15        14.6457   64.7193    7.9399 C.ar        1 XBV      -0.0424
     16 C16        16.1895   63.7968    6.3159 C.ar        1 XBV       0.0070
     17 C17        13.7319   64.9653    6.8990 C.ar        1 XBV      -0.0126
     18 CL1        17.0316   63.8180    8.8602 Cl          1 XBV      -0.0753
     19 C19         7.7264   64.0865    4.1106 C.ar        1 XBV       0.0920
     20 C20         7.3563   62.9612    4.8845 C.ar        1 XBV      -0.0478
     21 C21         5.5226   64.2067    5.9175 C.ar        1 XBV       0.0960
     22 C22         5.8609   65.3220    5.1113 C.ar        1 XBV      -0.0056
     23 C23         6.2770   63.0195    5.7710 C.ar        1 XBV      -0.0431
     24 C24         6.9410   65.2689    4.2209 C.ar        1 XBV       0.1465
     25 N25         4.4847   64.2772    6.8235 N.am        1 XBV      -0.1717
     26 C26         4.5950   65.1184    7.8995 C.2         1 XBV       0.0799
     27 C27         2.5299   64.3662    8.7034 C.2         1 XBV      -0.0778
     28 C28         2.3911   63.5543    7.6410 C.2         1 XBV      -0.0111
     29 C29         3.6297   65.1594    8.8400 C.2         1 XBV      -0.0402
     30 C30         3.3747   63.5105    6.6873 C.2         1 XBV       0.2151
     31 O31         3.1850   62.7886    5.7084 O.2         1 XBV      -0.4155
     32 F32         7.1743   66.3042    3.4615 F           1 XBV      -0.1956
     33 C33        11.8086   64.4205   -1.2921 C.3         1 XBV       0.0304
     34 C34        12.9654   65.1157   -2.0688 C.3         1 XBV       0.2778
     35 F35        12.7349   66.4733   -2.1717 F           1 XBV      -0.2034
     36 F36        14.1924   64.9232   -1.4618 F           1 XBV      -0.2034
     37 H1         12.0185   66.3229    2.7708 H           1 XBV       0.0628
     38 H2         11.3724   63.3585    2.8121 H           1 XBV       0.0626
     39 H3          9.9417   64.9012    0.6296 H           1 XBV       0.0845
     40 H4         10.2844   63.1488    0.7632 H           1 XBV       0.0845
     41 H5         12.5587   63.5357    0.4034 H           1 XBV       0.2039
     42 H6         13.6402   65.5853    0.6668 H           1 XBV       0.0845
     43 H7         12.0980   66.4300    0.5436 H           1 XBV       0.0845
     44 H8          8.9140   63.1024    2.8474 H           1 XBV       0.2221
     45 H9         12.3669   65.3351    4.8568 H           1 XBV       0.2314
     46 H10        14.4180   64.9869    8.8955 H           1 XBV       0.0697
     47 H11        17.0818   63.3637    6.0662 H           1 XBV       0.0781
     48 H12        12.8325   65.4031    7.1129 H           1 XBV       0.0598
     49 H13         7.8977   62.0940    4.8157 H           1 XBV       0.0473
     50 H14         5.3068   66.1822    5.1828 H           1 XBV       0.0513
     51 H15         6.0522   62.2009    6.3390 H           1 XBV       0.0496
     52 H16         5.3910   65.7041    8.0092 H           1 XBV       0.1228
     53 H17         1.8218   64.3912    9.4012 H           1 XBV       0.0636
     54 H18         1.5738   62.9831    7.5577 H           1 XBV       0.0399
     55 H19         3.7209   65.7578    9.6214 H           1 XBV       0.0371
     56 H20        10.8668   64.9266   -1.5456 H           1 XBV       0.0871
     57 H21        11.7268   63.3865   -1.6438 H           1 XBV       0.0871
     58 H22        13.0221   64.6992   -3.0798 H           1 XBV       0.1075
@<TRIPOS>BOND
     1     2     1   1
     2     1     5   1
     3     1     6   1
     4     2     3   1
     5     7     2   1
     6     3     4   1
     7     4     5   1
     8     4    33   1
     9     6    10   2
    10     6    11  am
    11     8     7  am
    12     7     9   2
    13    19     8   1
    14    11    12   1
    15    12    13  ar
    16    12    17  ar
    17    13    16  ar
    18    15    14  ar
    19    16    14  ar
    20    14    18   1
    21    17    15  ar
    22    20    19  ar
    23    24    19  ar
    24    23    20  ar
    25    21    22  ar
    26    21    23  ar
    27    25    21   1
    28    22    24  ar
    29    24    32   1
    30    26    25   1
    31    25    30  am
    32    29    26   2
    33    27    28   2
    34    27    29   1
    35    28    30   1
    36    30    31   2
    37    33    34   1
    38    34    35   1
    39    34    36   1
    40     1    37   1
    41     2    38   1
    42     3    39   1
    43     3    40   1
    44     4    41   1
    45     5    42   1
    46     5    43   1
    47     8    44   1
    48    11    45   1
    49    15    46   1
    50    16    47   1
    51    17    48   1
    52    20    49   1
    53    22    50   1
    54    23    51   1
    55    26    52   1
    56    27    53   1
    57    28    54   1
    58    29    55   1
    59    33    56   1
    60    33    57   1
    61    34    58   1
@<TRIPOS>SUBSTRUCTURE
     1  XBV      1

