@<TRIPOS>MOLECULE
2xbv_ligand_042
    58    61
SMALL
GAST_HUCK
****
This file was generated by PARSER (from files_GN.cpp)

@<TRIPOS>ATOM
      1 C1          7.3692   66.8034    3.1766 C.3         1 XBV       0.1199
      2 C2          8.6411   66.0203    3.6260 C.3         1 XBV       0.1186
      3 C3          9.7395   66.7249    2.8078 C.3         1 XBV      -0.0085
      4 N4          9.4020   68.1575    2.9388 N.4         1 XBV       0.2432
      5 C5          7.9162   68.2466    2.9560 C.3         1 XBV      -0.0084
      6 C6          6.1846   66.7380    4.0399 C.2         1 XBV       0.2190
      7 C7          8.6871   64.5649    3.4946 C.2         1 XBV       0.2118
      8 N8          7.6354   63.8478    3.1144 N.am        1 XBV      -0.2375
      9 O9          9.7067   64.0137    3.9057 O.2         1 XBV      -0.3856
     10 O10         5.2408   67.4620    3.7430 O.2         1 XBV      -0.3820
     11 N11         6.0743   65.8394    5.0188 N.am        1 XBV      -0.2172
     12 C12         5.0350   65.5998    5.8544 C.ar        1 XBV       0.1394
     13 N13         3.9004   66.3591    5.8697 N.ar        1 XBV      -0.2842
     14 C14         2.9169   65.0759    7.6331 C.ar        1 XBV       0.0509
     15 C15         4.0675   64.2587    7.6462 C.ar        1 XBV      -0.0424
     16 C16         2.8618   66.1344    6.7090 C.ar        1 XBV       0.0070
     17 C17         5.1233   64.5133    6.7530 C.ar        1 XBV      -0.0126
     18 CL1         1.6302   64.7828    8.6950 Cl          1 XBV      -0.0753
     19 C19         7.4965   62.4863    3.0977 C.ar        1 XBV       0.0920
     20 C20         6.2568   61.9755    3.5370 C.ar        1 XBV      -0.0478
     21 C21         6.9996   59.6885    3.1162 C.ar        1 XBV       0.0960
     22 C22         8.2314   60.1894    2.6444 C.ar        1 XBV      -0.0056
     23 C23         6.0098   60.5947    3.5531 C.ar        1 XBV      -0.0431
     24 C24         8.4772   61.5735    2.6250 C.ar        1 XBV       0.1465
     25 N25         6.7362   58.3436    3.1035 N.am        1 XBV      -0.1717
     26 C26         6.3458   57.7715    1.9276 C.2         1 XBV       0.0799
     27 C27         6.0315   55.7340    3.0376 C.2         1 XBV      -0.0778
     28 C28         6.4549   56.2773    4.1954 C.2         1 XBV      -0.0111
     29 C29         5.9968   56.4709    1.8874 C.2         1 XBV      -0.0402
     30 C30         6.8055   57.6024    4.2337 C.2         1 XBV       0.2151
     31 O31         7.1655   58.0703    5.3080 O.2         1 XBV      -0.4155
     32 F32         9.6029   61.9811    2.1031 F           1 XBV      -0.1956
     33 C33        10.1462   69.0722    2.0171 C.3         1 XBV       0.0304
     34 C34        10.4030   70.4483    2.6810 C.3         1 XBV       0.2778
     35 F35        11.2640   71.2029    1.9234 F           1 XBV      -0.2034
     36 F36         9.2342   71.1528    2.8297 F           1 XBV      -0.2034
     37 H1          7.0611   66.4186    2.1952 H           1 XBV       0.0628
     38 H2          8.8241   66.2544    4.6818 H           1 XBV       0.0626
     39 H3          9.7259   66.3890    1.7636 H           1 XBV       0.0845
     40 H4         10.7264   66.5338    3.2342 H           1 XBV       0.0845
     41 H5          9.6975   68.4087    3.8854 H           1 XBV       0.2039
     42 H6          7.6424   68.9135    3.7763 H           1 XBV       0.0845
     43 H7          7.5052   68.6622    2.0305 H           1 XBV       0.0845
     44 H8          6.8195   64.3465    2.9546 H           1 XBV       0.2221
     45 H9          6.8414   65.2527    5.1389 H           1 XBV       0.2314
     46 H10         4.1334   63.4810    8.3075 H           1 XBV       0.0697
     47 H11         2.0393   66.7426    6.6646 H           1 XBV       0.0781
     48 H12         5.9470   63.9000    6.7559 H           1 XBV       0.0598
     49 H13         5.5217   62.6099    3.8660 H           1 XBV       0.0473
     50 H14         8.9417   59.5385    2.2923 H           1 XBV       0.0513
     51 H15         5.1002   60.2460    3.8677 H           1 XBV       0.0496
     52 H16         6.3017   58.3037    1.0840 H           1 XBV       0.1228
     53 H17         5.7442   54.7845    3.0170 H           1 XBV       0.0636
     54 H18         6.4964   55.7138    5.0158 H           1 XBV       0.0399
     55 H19         5.7241   56.0503    1.0302 H           1 XBV       0.0371
     56 H20         9.6213   69.1919    1.0624 H           1 XBV       0.0871
     57 H21        11.1241   68.6400    1.7883 H           1 XBV       0.0871
     58 H22        10.8574   70.3057    3.6659 H           1 XBV       0.1075
@<TRIPOS>BOND
     1     2     1   1
     2     1     5   1
     3     1     6   1
     4     2     3   1
     5     7     2   1
     6     3     4   1
     7     4     5   1
     8     4    33   1
     9     6    10   2
    10     6    11  am
    11     8     7  am
    12     7     9   2
    13    19     8   1
    14    11    12   1
    15    12    13  ar
    16    12    17  ar
    17    13    16  ar
    18    15    14  ar
    19    16    14  ar
    20    14    18   1
    21    17    15  ar
    22    20    19  ar
    23    24    19  ar
    24    23    20  ar
    25    21    22  ar
    26    21    23  ar
    27    25    21   1
    28    22    24  ar
    29    24    32   1
    30    26    25   1
    31    25    30  am
    32    29    26   2
    33    27    28   2
    34    27    29   1
    35    28    30   1
    36    30    31   2
    37    33    34   1
    38    34    35   1
    39    34    36   1
    40     1    37   1
    41     2    38   1
    42     3    39   1
    43     3    40   1
    44     4    41   1
    45     5    42   1
    46     5    43   1
    47     8    44   1
    48    11    45   1
    49    15    46   1
    50    16    47   1
    51    17    48   1
    52    20    49   1
    53    22    50   1
    54    23    51   1
    55    26    52   1
    56    27    53   1
    57    28    54   1
    58    29    55   1
    59    33    56   1
    60    33    57   1
    61    34    58   1
@<TRIPOS>SUBSTRUCTURE
     1  XBV      1

