@<TRIPOS>MOLECULE
2xbv_ligand_024
    58    61
SMALL
GAST_HUCK
****
This file was generated by PARSER (from files_GN.cpp)

@<TRIPOS>ATOM
      1 C1          3.0262   56.9607    2.4255 C.3         1 XBV       0.1199
      2 C2          4.5338   57.0136    2.0469 C.3         1 XBV       0.1186
      3 C3          5.2179   56.2987    3.2272 C.3         1 XBV      -0.0085
      4 N4          4.3317   55.1423    3.4472 N.4         1 XBV       0.2432
      5 C5          2.9447   55.6565    3.2843 C.3         1 XBV      -0.0084
      6 C6          2.1162   57.0788    1.2799 C.2         1 XBV       0.2190
      7 C7          5.1019   58.3309    1.7941 C.2         1 XBV       0.2118
      8 N8          5.6337   58.6007    0.6063 N.am        1 XBV      -0.2375
      9 O9          5.0237   59.1887    2.6667 O.2         1 XBV      -0.3856
     10 O10         1.2781   56.2101    1.0632 O.2         1 XBV      -0.3820
     11 N11         2.2154   58.1501    0.4966 N.am        1 XBV      -0.2172
     12 C12         1.5185   58.4565   -0.6261 C.ar        1 XBV       0.1394
     13 N13         0.5263   57.6654   -1.1269 N.ar        1 XBV      -0.2842
     14 C14         0.1321   59.1149   -2.9844 C.ar        1 XBV       0.0509
     15 C15         1.1520   59.9615   -2.5081 C.ar        1 XBV      -0.0424
     16 C16        -0.1694   57.9487   -2.2558 C.ar        1 XBV       0.0070
     17 C17         1.8394   59.6415   -1.3234 C.ar        1 XBV      -0.0126
     18 CL1        -0.7124   59.4864   -4.4029 Cl          1 XBV      -0.0753
     19 C19         6.1862   59.7772    0.1940 C.ar        1 XBV       0.0920
     20 C20         5.6722   60.3622   -0.9810 C.ar        1 XBV      -0.0478
     21 C21         7.3015   62.1976   -0.8327 C.ar        1 XBV       0.0960
     22 C22         7.8294   61.5861    0.3286 C.ar        1 XBV      -0.0056
     23 C23         6.2017   61.5706   -1.4662 C.ar        1 XBV      -0.0431
     24 C24         7.2768   60.4009    0.8494 C.ar        1 XBV       0.1465
     25 N25         7.8330   63.3801   -1.3251 N.am        1 XBV      -0.1717
     26 C26         8.0297   64.4272   -0.4617 C.2         1 XBV       0.0799
     27 C27         8.8428   65.7417   -2.2190 C.2         1 XBV      -0.0778
     28 C28         8.6546   64.7264   -3.0857 C.2         1 XBV      -0.0111
     29 C29         8.5380   65.5961   -0.8981 C.2         1 XBV      -0.0402
     30 C30         8.1606   63.5308   -2.6327 C.2         1 XBV       0.2151
     31 O31         8.0685   62.6218   -3.4503 O.2         1 XBV      -0.4155
     32 F32         7.8273   59.8686    1.9095 F           1 XBV      -0.1956
     33 C33         4.5566   54.3040    4.6613 C.3         1 XBV       0.0304
     34 C34         6.0247   53.8620    4.8968 C.3         1 XBV       0.2778
     35 F35         6.6382   54.6577    5.8354 F           1 XBV      -0.2034
     36 F36         6.0611   52.5686    5.3529 F           1 XBV      -0.2034
     37 H1          2.7973   57.8006    3.0901 H           1 XBV       0.0628
     38 H2          4.6793   56.3802    1.1601 H           1 XBV       0.0626
     39 H3          5.2700   56.9302    4.1214 H           1 XBV       0.0845
     40 H4          6.2253   55.9765    2.9508 H           1 XBV       0.0845
     41 H5          4.4804   54.5378    2.6401 H           1 XBV       0.2039
     42 H6          2.3644   54.8679    2.8004 H           1 XBV       0.0845
     43 H7          2.4696   55.8793    4.2471 H           1 XBV       0.0845
     44 H8          5.5326   57.9153   -0.0759 H           1 XBV       0.2221
     45 H9          2.8889   58.7973    0.7557 H           1 XBV       0.2314
     46 H10         1.3955   60.8130   -3.0219 H           1 XBV       0.0697
     47 H11        -0.9029   57.3097   -2.5666 H           1 XBV       0.0781
     48 H12         2.5722   60.2675   -0.9815 H           1 XBV       0.0598
     49 H13         4.8959   59.9242   -1.4800 H           1 XBV       0.0473
     50 H14         8.6370   62.0035    0.7996 H           1 XBV       0.0513
     51 H15         5.7710   61.9995   -2.2905 H           1 XBV       0.0496
     52 H16         7.7981   64.3515    0.5044 H           1 XBV       0.1228
     53 H17         9.2019   66.6085   -2.5475 H           1 XBV       0.0636
     54 H18         8.8775   64.8561   -4.0472 H           1 XBV       0.0399
     55 H19         8.6854   66.3512   -0.2658 H           1 XBV       0.0371
     56 H20         3.9505   53.4025    4.5337 H           1 XBV       0.0871
     57 H21         4.1957   54.8186    5.5558 H           1 XBV       0.0871
     58 H22         6.6038   53.9156    3.9710 H           1 XBV       0.1075
@<TRIPOS>BOND
     1     2     1   1
     2     1     5   1
     3     1     6   1
     4     2     3   1
     5     7     2   1
     6     3     4   1
     7     4     5   1
     8     4    33   1
     9     6    10   2
    10     6    11  am
    11     8     7  am
    12     7     9   2
    13    19     8   1
    14    11    12   1
    15    12    13  ar
    16    12    17  ar
    17    13    16  ar
    18    15    14  ar
    19    16    14  ar
    20    14    18   1
    21    17    15  ar
    22    20    19  ar
    23    24    19  ar
    24    23    20  ar
    25    21    22  ar
    26    21    23  ar
    27    25    21   1
    28    22    24  ar
    29    24    32   1
    30    26    25   1
    31    25    30  am
    32    29    26   2
    33    27    28   2
    34    27    29   1
    35    28    30   1
    36    30    31   2
    37    33    34   1
    38    34    35   1
    39    34    36   1
    40     1    37   1
    41     2    38   1
    42     3    39   1
    43     3    40   1
    44     4    41   1
    45     5    42   1
    46     5    43   1
    47     8    44   1
    48    11    45   1
    49    15    46   1
    50    16    47   1
    51    17    48   1
    52    20    49   1
    53    22    50   1
    54    23    51   1
    55    26    52   1
    56    27    53   1
    57    28    54   1
    58    29    55   1
    59    33    56   1
    60    33    57   1
    61    34    58   1
@<TRIPOS>SUBSTRUCTURE
     1  XBV      1

