@<TRIPOS>MOLECULE
2xbv_ligand_085
    58    61
SMALL
GAST_HUCK
****
This file was generated by PARSER (from files_GN.cpp)

@<TRIPOS>ATOM
      1 C1         14.2197   65.7460    4.4297 C.3         1 XBV       0.1199
      2 C2         13.8045   64.2859    4.1074 C.3         1 XBV       0.1186
      3 C3         15.0253   63.4690    4.5884 C.3         1 XBV      -0.0085
      4 N4         15.3959   64.1119    5.8695 N.4         1 XBV       0.2432
      5 C5         15.2507   65.5717    5.5933 C.3         1 XBV      -0.0084
      6 C6         13.0785   66.6395    4.6433 C.2         1 XBV       0.2190
      7 C7         13.4449   64.0429    2.7141 C.2         1 XBV       0.2118
      8 N8         12.1795   64.1722    2.3286 N.am        1 XBV      -0.2375
      9 O9         14.3358   63.8210    1.9016 O.2         1 XBV      -0.3856
     10 O10        12.8819   67.1070    5.7552 O.2         1 XBV      -0.3820
     11 N11        12.3055   66.9726    3.6116 N.am        1 XBV      -0.2172
     12 C12        11.2192   67.7854    3.5825 C.ar        1 XBV       0.1394
     13 N13        10.7368   68.4256    4.6851 N.ar        1 XBV      -0.2842
     14 C14         8.9858   69.4936    3.4641 C.ar        1 XBV       0.0509
     15 C15         9.4370   68.8454    2.2985 C.ar        1 XBV      -0.0424
     16 C16         9.6643   69.2566    4.6730 C.ar        1 XBV       0.0070
     17 C17        10.5529   67.9893    2.3547 C.ar        1 XBV      -0.0126
     18 CL1         7.6551   70.5394    3.4170 Cl          1 XBV      -0.0753
     19 C19        11.7054   64.1071    1.0521 C.ar        1 XBV       0.0920
     20 C20        10.5622   63.3194    0.8156 C.ar        1 XBV      -0.0478
     21 C21        10.6449   63.8364   -1.5866 C.ar        1 XBV       0.0960
     22 C22        11.7594   64.6716   -1.3287 C.ar        1 XBV      -0.0056
     23 C23        10.0543   63.1713   -0.4856 C.ar        1 XBV      -0.0431
     24 C24        12.2856   64.8137   -0.0311 C.ar        1 XBV       0.1465
     25 N25        10.1455   63.6967   -2.8785 N.am        1 XBV      -0.1717
     26 C26        11.0217   63.4494   -3.9064 C.2         1 XBV       0.0799
     27 C27         9.2689   63.5388   -5.4492 C.2         1 XBV      -0.0778
     28 C28         8.3811   63.7308   -4.4538 C.2         1 XBV      -0.0111
     29 C29        10.5963   63.3911   -5.1838 C.2         1 XBV      -0.0402
     30 C30         8.8260   63.8354   -3.1621 C.2         1 XBV       0.2151
     31 O31         7.9897   64.1332   -2.3151 O.2         1 XBV      -0.4155
     32 F32        13.2784   65.6457    0.1422 F           1 XBV      -0.1956
     33 C33        16.7159   63.7303    6.4740 C.3         1 XBV       0.0304
     34 C34        16.9136   62.2411    6.9177 C.3         1 XBV       0.2778
     35 F35        16.9662   62.1384    8.2917 F           1 XBV      -0.2034
     36 F36        15.9314   61.3721    6.5151 F           1 XBV      -0.2034
     37 H1         14.7768   66.1358    3.5702 H           1 XBV       0.0628
     38 H2         12.9629   63.9956    4.7481 H           1 XBV       0.0626
     39 H3         15.8680   63.5266    3.8837 H           1 XBV       0.0845
     40 H4         14.7304   62.4273    4.7125 H           1 XBV       0.0845
     41 H5         14.6730   63.8665    6.5536 H           1 XBV       0.2039
     42 H6         14.9499   66.0682    6.5185 H           1 XBV       0.0845
     43 H7         16.2046   66.0092    5.2801 H           1 XBV       0.0845
     44 H8         11.5166   64.2941    3.0274 H           1 XBV       0.2221
     45 H9         12.5587   66.5856    2.7591 H           1 XBV       0.2314
     46 H10         8.9581   68.9953    1.4070 H           1 XBV       0.0697
     47 H11         9.3666   69.7049    5.5420 H           1 XBV       0.0781
     48 H12        10.8738   67.5219    1.5044 H           1 XBV       0.0598
     49 H13        10.1090   62.8263    1.5902 H           1 XBV       0.0473
     50 H14        12.1922   65.1978   -2.0916 H           1 XBV       0.0513
     51 H15         9.2460   62.5607   -0.6229 H           1 XBV       0.0496
     52 H16        11.9925   63.3167   -3.7373 H           1 XBV       0.1228
     53 H17         8.9504   63.5028   -6.3896 H           1 XBV       0.0636
     54 H18         7.4132   63.8149   -4.6690 H           1 XBV       0.0399
     55 H19        11.2421   63.2368   -5.9243 H           1 XBV       0.0371
     56 H20        16.8705   64.3710    7.3531 H           1 XBV       0.0871
     57 H21        17.5127   63.9960    5.7707 H           1 XBV       0.0871
     58 H22        17.8687   61.8755    6.5149 H           1 XBV       0.1075
@<TRIPOS>BOND
     1     2     1   1
     2     1     5   1
     3     1     6   1
     4     2     3   1
     5     7     2   1
     6     3     4   1
     7     4     5   1
     8     4    33   1
     9     6    10   2
    10     6    11  am
    11     8     7  am
    12     7     9   2
    13    19     8   1
    14    11    12   1
    15    12    13  ar
    16    12    17  ar
    17    13    16  ar
    18    15    14  ar
    19    16    14  ar
    20    14    18   1
    21    17    15  ar
    22    20    19  ar
    23    24    19  ar
    24    23    20  ar
    25    21    22  ar
    26    21    23  ar
    27    25    21   1
    28    22    24  ar
    29    24    32   1
    30    26    25   1
    31    25    30  am
    32    29    26   2
    33    27    28   2
    34    27    29   1
    35    28    30   1
    36    30    31   2
    37    33    34   1
    38    34    35   1
    39    34    36   1
    40     1    37   1
    41     2    38   1
    42     3    39   1
    43     3    40   1
    44     4    41   1
    45     5    42   1
    46     5    43   1
    47     8    44   1
    48    11    45   1
    49    15    46   1
    50    16    47   1
    51    17    48   1
    52    20    49   1
    53    22    50   1
    54    23    51   1
    55    26    52   1
    56    27    53   1
    57    28    54   1
    58    29    55   1
    59    33    56   1
    60    33    57   1
    61    34    58   1
@<TRIPOS>SUBSTRUCTURE
     1  XBV      1

