@<TRIPOS>MOLECULE
2xbv_ligand_036
    58    61
SMALL
GAST_HUCK
****
This file was generated by PARSER (from files_GN.cpp)

@<TRIPOS>ATOM
      1 C1         11.2229   66.9348    3.5351 C.3         1 XBV       0.1199
      2 C2          9.8495   66.7733    4.2798 C.3         1 XBV       0.1186
      3 C3          9.0447   65.8537    3.2973 C.3         1 XBV      -0.0085
      4 N4          9.8548   65.6827    2.0650 N.4         1 XBV       0.2432
      5 C5         10.8119   66.8096    2.0464 C.3         1 XBV      -0.0084
      6 C6         12.2428   65.9744    3.9780 C.2         1 XBV       0.2190
      7 C7          9.2453   68.0602    4.6697 C.2         1 XBV       0.2118
      8 N8          7.9486   68.3509    4.5038 N.am        1 XBV      -0.2375
      9 O9          9.9529   68.8365    5.3035 O.2         1 XBV      -0.3856
     10 O10        12.7458   65.1873    3.1867 O.2         1 XBV      -0.3820
     11 N11        12.6064   65.9759    5.2568 N.am        1 XBV      -0.2172
     12 C12        13.5518   65.2204    5.8769 C.ar        1 XBV       0.1394
     13 N13        14.3387   64.3249    5.2187 N.ar        1 XBV      -0.2842
     14 C14        15.5409   63.7435    7.1984 C.ar        1 XBV       0.0509
     15 C15        14.7410   64.6486    7.9221 C.ar        1 XBV      -0.0424
     16 C16        15.3072   63.5900    5.8182 C.ar        1 XBV       0.0070
     17 C17        13.7426   65.3902    7.2649 C.ar        1 XBV      -0.0126
     18 CL1        16.7777   62.8815    7.9615 Cl          1 XBV      -0.0753
     19 C19         7.2548   69.5191    4.7177 C.ar        1 XBV       0.0920
     20 C20         5.8845   69.3827    5.0519 C.ar        1 XBV      -0.0478
     21 C21         5.5724   71.8230    5.0979 C.ar        1 XBV       0.0960
     22 C22         6.9451   71.9492    4.7452 C.ar        1 XBV      -0.0056
     23 C23         5.0603   70.5063    5.2266 C.ar        1 XBV      -0.0431
     24 C24         7.7618   70.8251    4.5268 C.ar        1 XBV       0.1465
     25 N25         4.7625   72.9383    5.2723 N.am        1 XBV      -0.1717
     26 C26         4.8128   73.9566    4.3478 C.2         1 XBV       0.0799
     27 C27         3.2628   75.1981    5.5774 C.2         1 XBV      -0.0778
     28 C28         3.1526   74.1999    6.4749 C.2         1 XBV      -0.0111
     29 C29         4.1007   75.0884    4.5138 C.2         1 XBV      -0.0402
     30 C30         3.9190   73.0749    6.3343 C.2         1 XBV       0.2151
     31 O31         3.8460   72.2420    7.2324 O.2         1 XBV      -0.4155
     32 F32         8.9672   71.0362    4.0627 F           1 XBV      -0.1956
     33 C33         9.1334   65.3694    0.7963 C.3         1 XBV       0.0304
     34 C34         8.1204   66.4228    0.2705 C.3         1 XBV       0.2778
     35 F35         7.9880   66.3376   -1.0965 F           1 XBV      -0.2034
     36 F36         6.8671   66.2414    0.8165 F           1 XBV      -0.2034
     37 H1         11.6593   67.9283    3.6805 H           1 XBV       0.0628
     38 H2          9.9821   66.2195    5.2156 H           1 XBV       0.0626
     39 H3          8.0703   66.2653    3.0526 H           1 XBV       0.0845
     40 H4          8.8785   64.8692    3.7417 H           1 XBV       0.0845
     41 H5         10.4354   64.8564    2.2438 H           1 XBV       0.2039
     42 H6         11.6614   66.5932    1.3941 H           1 XBV       0.0845
     43 H7         10.3608   67.7422    1.7090 H           1 XBV       0.0845
     44 H8          7.4026   67.6181    4.2099 H           1 XBV       0.2221
     45 H9         12.1197   66.5831    5.8376 H           1 XBV       0.2314
     46 H10        14.8982   64.7891    8.9234 H           1 XBV       0.0697
     47 H11        15.8665   62.9449    5.2581 H           1 XBV       0.0781
     48 H12        13.1728   66.0561    7.7940 H           1 XBV       0.0598
     49 H13         5.4690   68.4524    5.1534 H           1 XBV       0.0473
     50 H14         7.3505   72.8837    4.6401 H           1 XBV       0.0513
     51 H15         4.0679   70.3645    5.4451 H           1 XBV       0.0496
     52 H16         5.3834   73.8792    3.5320 H           1 XBV       0.1228
     53 H17         2.7084   76.0157    5.6853 H           1 XBV       0.0636
     54 H18         2.5091   74.2922    7.2314 H           1 XBV       0.0399
     55 H19         4.1796   75.8343    3.8592 H           1 XBV       0.0371
     56 H20         8.6107   64.4183    0.9310 H           1 XBV       0.0871
     57 H21         9.8905   65.1867    0.0309 H           1 XBV       0.0871
     58 H22         8.4448   67.4347    0.5023 H           1 XBV       0.1075
@<TRIPOS>BOND
     1     2     1   1
     2     1     5   1
     3     1     6   1
     4     2     3   1
     5     7     2   1
     6     3     4   1
     7     4     5   1
     8     4    33   1
     9     6    10   2
    10     6    11  am
    11     8     7  am
    12     7     9   2
    13    19     8   1
    14    11    12   1
    15    12    13  ar
    16    12    17  ar
    17    13    16  ar
    18    15    14  ar
    19    16    14  ar
    20    14    18   1
    21    17    15  ar
    22    20    19  ar
    23    24    19  ar
    24    23    20  ar
    25    21    22  ar
    26    21    23  ar
    27    25    21   1
    28    22    24  ar
    29    24    32   1
    30    26    25   1
    31    25    30  am
    32    29    26   2
    33    27    28   2
    34    27    29   1
    35    28    30   1
    36    30    31   2
    37    33    34   1
    38    34    35   1
    39    34    36   1
    40     1    37   1
    41     2    38   1
    42     3    39   1
    43     3    40   1
    44     4    41   1
    45     5    42   1
    46     5    43   1
    47     8    44   1
    48    11    45   1
    49    15    46   1
    50    16    47   1
    51    17    48   1
    52    20    49   1
    53    22    50   1
    54    23    51   1
    55    26    52   1
    56    27    53   1
    57    28    54   1
    58    29    55   1
    59    33    56   1
    60    33    57   1
    61    34    58   1
@<TRIPOS>SUBSTRUCTURE
     1  XBV      1

