@<TRIPOS>MOLECULE
2xbv_ligand_078
    58    61
SMALL
GAST_HUCK
****
This file was generated by PARSER (from files_GN.cpp)

@<TRIPOS>ATOM
      1 C1          7.2477   68.4005    3.5270 C.3         1 XBV       0.1199
      2 C2          8.0707   67.1229    3.8606 C.3         1 XBV       0.1186
      3 C3          9.4655   67.5176    3.3345 C.3         1 XBV      -0.0085
      4 N4          9.6246   68.9477    3.6979 N.4         1 XBV       0.2432
      5 C5          8.2747   69.5659    3.5958 C.3         1 XBV      -0.0084
      6 C6          6.0501   68.5499    4.3530 C.2         1 XBV       0.2190
      7 C7          7.5809   65.8497    3.3326 C.2         1 XBV       0.2118
      8 N8          8.0965   64.7142    3.7917 N.am        1 XBV      -0.2375
      9 O9          6.7083   65.8368    2.4718 O.2         1 XBV      -0.3856
     10 O10         6.1814   68.7506    5.5561 O.2         1 XBV      -0.3820
     11 N11         4.8589   68.3339    3.8037 N.am        1 XBV      -0.2172
     12 C12         3.6273   68.3337    4.3703 C.ar        1 XBV       0.1394
     13 N13         3.3943   68.6445    5.6794 N.ar        1 XBV      -0.2842
     14 C14         1.0415   68.2743    5.4707 C.ar        1 XBV       0.0509
     15 C15         1.2350   67.9440    4.1153 C.ar        1 XBV      -0.0424
     16 C16         2.1619   68.6308    6.2439 C.ar        1 XBV       0.0070
     17 C17         2.5272   67.9779    3.5599 C.ar        1 XBV      -0.0126
     18 CL1        -0.5073   68.2400    6.1535 Cl          1 XBV      -0.0753
     19 C19         7.7624   63.4364    3.4298 C.ar        1 XBV       0.0920
     20 C20         6.4628   62.9137    3.6185 C.ar        1 XBV      -0.0478
     21 C21         7.1436   60.7514    2.6775 C.ar        1 XBV       0.0960
     22 C22         8.4529   61.2651    2.5281 C.ar        1 XBV      -0.0056
     23 C23         6.1609   61.5883    3.2581 C.ar        1 XBV      -0.0431
     24 C24         8.7670   62.5838    2.9195 C.ar        1 XBV       0.1465
     25 N25         6.8247   59.4615    2.2856 N.am        1 XBV      -0.1717
     26 C26         5.8651   59.2838    1.3229 C.2         1 XBV       0.0799
     27 C27         6.0872   56.9609    1.5043 C.2         1 XBV      -0.0778
     28 C28         7.0480   57.1112    2.4343 C.2         1 XBV      -0.0111
     29 C29         5.4822   58.0464    0.9451 C.2         1 XBV      -0.0402
     30 C30         7.4165   58.3706    2.8353 C.2         1 XBV       0.2151
     31 O31         8.2495   58.4529    3.7327 O.2         1 XBV      -0.4155
     32 F32         9.9904   63.0175    2.7441 F           1 XBV      -0.1956
     33 C33        10.7584   69.6178    2.9852 C.3         1 XBV       0.0304
     34 C34        11.0415   71.0784    3.4186 C.3         1 XBV       0.2778
     35 F35        10.3113   71.9774    2.6763 F           1 XBV      -0.2034
     36 F36        10.7529   71.2810    4.7459 F           1 XBV      -0.2034
     37 H1          6.9422   68.3382    2.4742 H           1 XBV       0.0628
     38 H2          8.1393   67.0130    4.9437 H           1 XBV       0.0626
     39 H3          9.5172   67.3767    2.2445 H           1 XBV       0.0845
     40 H4         10.2416   66.9159    3.8117 H           1 XBV       0.0845
     41 H5          9.8638   68.9605    4.6949 H           1 XBV       0.2039
     42 H6          8.1216   70.2068    4.4723 H           1 XBV       0.0845
     43 H7          8.1819   70.1911    2.7027 H           1 XBV       0.0845
     44 H8          8.8174   64.7940    4.4343 H           1 XBV       0.2221
     45 H9          4.8723   68.1190    2.8566 H           1 XBV       0.2314
     46 H10         0.4409   67.6772    3.5293 H           1 XBV       0.0697
     47 H11         2.0553   68.8830    7.2291 H           1 XBV       0.0781
     48 H12         2.6582   67.7355    2.5771 H           1 XBV       0.0598
     49 H13         5.7317   63.4921    4.0345 H           1 XBV       0.0473
     50 H14         9.1878   60.6760    2.1213 H           1 XBV       0.0513
     51 H15         5.2148   61.2366    3.4185 H           1 XBV       0.0496
     52 H16         5.4257   60.0648    0.8852 H           1 XBV       0.1228
     53 H17         5.8138   56.0467    1.2210 H           1 XBV       0.0636
     54 H18         7.4718   56.2999    2.8341 H           1 XBV       0.0399
     55 H19         4.7600   57.9276    0.2723 H           1 XBV       0.0371
     56 H20        10.5954   69.5925    1.9031 H           1 XBV       0.0871
     57 H21        11.6681   69.0452    3.1911 H           1 XBV       0.0871
     58 H22        12.0990   71.2992    3.2589 H           1 XBV       0.1075
@<TRIPOS>BOND
     1     2     1   1
     2     1     5   1
     3     1     6   1
     4     2     3   1
     5     7     2   1
     6     3     4   1
     7     4     5   1
     8     4    33   1
     9     6    10   2
    10     6    11  am
    11     8     7  am
    12     7     9   2
    13    19     8   1
    14    11    12   1
    15    12    13  ar
    16    12    17  ar
    17    13    16  ar
    18    15    14  ar
    19    16    14  ar
    20    14    18   1
    21    17    15  ar
    22    20    19  ar
    23    24    19  ar
    24    23    20  ar
    25    21    22  ar
    26    21    23  ar
    27    25    21   1
    28    22    24  ar
    29    24    32   1
    30    26    25   1
    31    25    30  am
    32    29    26   2
    33    27    28   2
    34    27    29   1
    35    28    30   1
    36    30    31   2
    37    33    34   1
    38    34    35   1
    39    34    36   1
    40     1    37   1
    41     2    38   1
    42     3    39   1
    43     3    40   1
    44     4    41   1
    45     5    42   1
    46     5    43   1
    47     8    44   1
    48    11    45   1
    49    15    46   1
    50    16    47   1
    51    17    48   1
    52    20    49   1
    53    22    50   1
    54    23    51   1
    55    26    52   1
    56    27    53   1
    57    28    54   1
    58    29    55   1
    59    33    56   1
    60    33    57   1
    61    34    58   1
@<TRIPOS>SUBSTRUCTURE
     1  XBV      1

