@<TRIPOS>MOLECULE
2xbv_ligand_032
    58    61
SMALL
GAST_HUCK
****
This file was generated by PARSER (from files_GN.cpp)

@<TRIPOS>ATOM
      1 C1         13.2285   64.7301    3.5902 C.3         1 XBV       0.1199
      2 C2         12.4522   65.8268    4.3591 C.3         1 XBV       0.1186
      3 C3         12.9634   65.5969    5.8006 C.3         1 XBV      -0.0085
      4 N4         14.4190   65.3427    5.6504 N.4         1 XBV       0.2432
      5 C5         14.6178   64.7720    4.2779 C.3         1 XBV      -0.0084
      6 C6         13.1908   64.8901    2.1369 C.2         1 XBV       0.2190
      7 C7         10.9973   65.8036    4.2332 C.2         1 XBV       0.2118
      8 N8         10.3346   66.9575    4.3099 N.am        1 XBV      -0.2375
      9 O9         10.4155   64.7247    4.1306 O.2         1 XBV      -0.3856
     10 O10        13.6892   65.8989    1.6482 O.2         1 XBV      -0.3820
     11 N11        12.5201   64.0077    1.3968 N.am        1 XBV      -0.2172
     12 C12        12.1938   64.0530    0.0829 C.ar        1 XBV       0.1394
     13 N13        12.5479   65.0792   -0.7498 N.ar        1 XBV      -0.2842
     14 C14        11.3790   64.1388   -2.6145 C.ar        1 XBV       0.0509
     15 C15        10.9961   63.0565   -1.7969 C.ar        1 XBV      -0.0424
     16 C16        12.1777   65.1496   -2.0523 C.ar        1 XBV       0.0070
     17 C17        11.4051   63.0086   -0.4532 C.ar        1 XBV      -0.0126
     18 CL1        10.8657   64.2187   -4.2222 Cl          1 XBV      -0.0753
     19 C19         8.9962   67.1969    4.3242 C.ar        1 XBV       0.0920
     20 C20         8.5825   68.4176    4.9207 C.ar        1 XBV      -0.0478
     21 C21         6.2340   67.9098    4.4762 C.ar        1 XBV       0.0960
     22 C22         6.6410   66.7124    3.8351 C.ar        1 XBV      -0.0056
     23 C23         7.2309   68.7606    5.0075 C.ar        1 XBV      -0.0431
     24 C24         7.9935   66.3663    3.7453 C.ar        1 XBV       0.1465
     25 N25         4.9108   68.2333    4.5753 N.am        1 XBV      -0.1717
     26 C26         4.3318   68.9469    3.5641 C.2         1 XBV       0.0799
     27 C27         2.3083   68.9697    4.7468 C.2         1 XBV      -0.0778
     28 C28         2.8608   68.2505    5.7424 C.2         1 XBV      -0.0111
     29 C29         3.0359   69.3182    3.6465 C.2         1 XBV      -0.0402
     30 C30         4.1766   67.8752    5.6597 C.2         1 XBV       0.2151
     31 O31         4.6450   67.2147    6.5778 O.2         1 XBV      -0.4155
     32 F32         8.3026   65.2927    3.0639 F           1 XBV      -0.1956
     33 C33        15.1419   64.6420    6.7655 C.3         1 XBV       0.0304
     34 C34        14.4748   64.6075    8.1675 C.3         1 XBV       0.2778
     35 F35        13.6672   65.7036    8.3608 F           1 XBV      -0.2034
     36 F36        13.7280   63.4663    8.3423 F           1 XBV      -0.2034
     37 H1         12.7878   63.7586    3.8502 H           1 XBV       0.0628
     38 H2         12.8265   66.8120    4.0400 H           1 XBV       0.0626
     39 H3         12.4556   64.7435    6.2536 H           1 XBV       0.0845
     40 H4         12.7848   66.4863    6.4073 H           1 XBV       0.0845
     41 H5         14.8306   66.2785    5.6154 H           1 XBV       0.2039
     42 H6         15.3100   65.4262    3.7394 H           1 XBV       0.0845
     43 H7         15.0461   63.7632    4.2829 H           1 XBV       0.0845
     44 H8         10.8919   67.7325    4.5070 H           1 XBV       0.2221
     45 H9         12.1761   63.2392    1.8826 H           1 XBV       0.2314
     46 H10        10.4170   62.3084   -2.1755 H           1 XBV       0.0697
     47 H11        12.4735   65.9537   -2.6158 H           1 XBV       0.0781
     48 H12        11.1071   62.2241    0.1350 H           1 XBV       0.0598
     49 H13         9.2819   69.0563    5.3165 H           1 XBV       0.0473
     50 H14         5.9333   66.0997    3.4230 H           1 XBV       0.0513
     51 H15         6.9583   69.6422    5.4547 H           1 XBV       0.0496
     52 H16         4.8501   69.2100    2.7571 H           1 XBV       0.1228
     53 H17         1.3553   69.2512    4.8132 H           1 XBV       0.0636
     54 H18         2.3123   68.0029    6.5364 H           1 XBV       0.0399
     55 H19         2.6145   69.8375    2.9117 H           1 XBV       0.0371
     56 H20        16.0942   65.1633    6.8811 H           1 XBV       0.0871
     57 H21        15.3791   63.6101    6.4925 H           1 XBV       0.0871
     58 H22        15.2403   64.6116    8.9496 H           1 XBV       0.1075
@<TRIPOS>BOND
     1     2     1   1
     2     1     5   1
     3     1     6   1
     4     2     3   1
     5     7     2   1
     6     3     4   1
     7     4     5   1
     8     4    33   1
     9     6    10   2
    10     6    11  am
    11     8     7  am
    12     7     9   2
    13    19     8   1
    14    11    12   1
    15    12    13  ar
    16    12    17  ar
    17    13    16  ar
    18    15    14  ar
    19    16    14  ar
    20    14    18   1
    21    17    15  ar
    22    20    19  ar
    23    24    19  ar
    24    23    20  ar
    25    21    22  ar
    26    21    23  ar
    27    25    21   1
    28    22    24  ar
    29    24    32   1
    30    26    25   1
    31    25    30  am
    32    29    26   2
    33    27    28   2
    34    27    29   1
    35    28    30   1
    36    30    31   2
    37    33    34   1
    38    34    35   1
    39    34    36   1
    40     1    37   1
    41     2    38   1
    42     3    39   1
    43     3    40   1
    44     4    41   1
    45     5    42   1
    46     5    43   1
    47     8    44   1
    48    11    45   1
    49    15    46   1
    50    16    47   1
    51    17    48   1
    52    20    49   1
    53    22    50   1
    54    23    51   1
    55    26    52   1
    56    27    53   1
    57    28    54   1
    58    29    55   1
    59    33    56   1
    60    33    57   1
    61    34    58   1
@<TRIPOS>SUBSTRUCTURE
     1  XBV      1

