@<TRIPOS>MOLECULE
2xdl_ligand_010
    33    33
SMALL
GAST_HUCK
****
This file was generated by PARSER (from files_GN.cpp)

@<TRIPOS>ATOM
      1 C1         72.0864   40.9949   27.3541 C.ar        1 MOL       0.1220
      2 C2         72.1508   42.3818   27.6057 C.ar        1 MOL       0.1250
      3 C3         71.1291   43.2261   27.1275 C.ar        1 MOL      -0.0217
      4 C4         70.0271   42.7085   26.3984 C.ar        1 MOL       0.0297
      5 C5         70.0144   41.3229   26.1045 C.ar        1 MOL      -0.0615
      6 C6         71.0226   40.4717   26.5938 C.ar        1 MOL      -0.0351
      7 O7         73.0616   40.1717   27.8065 O.3         1 MOL      -0.3332
      8 C9         66.7786   45.7870   26.1468 C.3         1 MOL      -0.0447
      9 C10        66.7550   44.3718   25.5251 C.3         1 MOL       0.0303
     10 C12        67.1235   42.4671   27.0834 C.3         1 MOL       0.0303
     11 C13        66.3416   41.3219   26.3920 C.3         1 MOL      -0.0447
     12 C14        69.0275   43.5534   25.9247 C.2         1 MOL       0.1966
     13 O15        69.4535   44.4601   25.2154 O.2         1 MOL      -0.3896
     14 O16        73.2287   42.9197   28.2598 O.3         1 MOL      -0.3239
     15 N3         67.6951   43.4407   26.1519 N.am        1 MOL      -0.2747
     16 C15        73.0863   42.9342   29.6897 C.3         1 MOL       0.0569
     17 H1         71.1864   44.2278   27.3231 H           1 MOL       0.0557
     18 H2         69.2726   40.9244   25.5160 H           1 MOL       0.0551
     19 H3         70.9848   39.4669   26.3846 H           1 MOL       0.0524
     20 H4         72.6605   39.6920   28.5719 H           1 MOL       0.2463
     21 H5         66.0106   46.4042   25.6768 H           1 MOL       0.0249
     22 H6         67.7461   46.2660   25.9915 H           1 MOL       0.0249
     23 H7         66.5765   45.7374   27.2197 H           1 MOL       0.0249
     24 H8         66.9625   44.4514   24.4548 H           1 MOL       0.0519
     25 H9         65.7265   44.0185   25.6062 H           1 MOL       0.0519
     26 H10        67.8830   42.0057   27.7173 H           1 MOL       0.0519
     27 H11        66.4388   42.9741   27.7703 H           1 MOL       0.0519
     28 H12        66.0278   40.5887   27.1404 H           1 MOL       0.0249
     29 H13        66.9811   40.8237   25.6571 H           1 MOL       0.0249
     30 H14        65.4501   41.6980   25.8828 H           1 MOL       0.0249
     31 H15        73.9867   43.3725   30.1238 H           1 MOL       0.0573
     32 H16        72.9784   41.9226   30.0879 H           1 MOL       0.0573
     33 H17        72.2313   43.5411   29.9939 H           1 MOL       0.0573
@<TRIPOS>BOND
     1     2     1  ar
     2     6     1  ar
     3     1     7   1
     4     3     2  ar
     5     2    14   1
     6     4     3  ar
     7     4     5  ar
     8    12     4   1
     9     5     6  ar
    10     9     8   1
    11    15     9   1
    12    10    11   1
    13    15    10   1
    14    12    13   2
    15    12    15  am
    16    14    16   1
    17     3    17   1
    18     5    18   1
    19     6    19   1
    20     7    20   1
    21     8    21   1
    22     8    22   1
    23     8    23   1
    24     9    24   1
    25     9    25   1
    26    10    26   1
    27    10    27   1
    28    11    28   1
    29    11    29   1
    30    11    30   1
    31    16    31   1
    32    16    32   1
    33    16    33   1
@<TRIPOS>SUBSTRUCTURE
     1  MOL      1

