@<TRIPOS>MOLECULE
2xdl_ligand_000
    33    33
SMALL
GAST_HUCK
****
This file was generated by PARSER (from files_GN.cpp)

@<TRIPOS>ATOM
      1 C1         69.8627   36.7141   29.7299 C.ar        1 MOL       0.1220
      2 C2         69.4616   37.8898   30.3994 C.ar        1 MOL       0.1250
      3 C3         68.4767   38.7167   29.7928 C.ar        1 MOL      -0.0217
      4 C4         67.8907   38.3621   28.5580 C.ar        1 MOL       0.0297
      5 C5         68.2730   37.1512   27.9349 C.ar        1 MOL      -0.0615
      6 C6         69.2567   36.3342   28.5168 C.ar        1 MOL      -0.0351
      7 O7         70.8456   35.9324   30.2359 O.3         1 MOL      -0.3332
      8 C9         64.9394   39.8386   25.6758 C.3         1 MOL      -0.0447
      9 C10        66.0142   40.7347   26.3377 C.3         1 MOL       0.0303
     10 C12        68.4567   40.2135   26.3615 C.3         1 MOL       0.0303
     11 C13        69.2225   41.2775   27.1788 C.3         1 MOL      -0.0447
     12 C14        66.9212   39.1648   27.9719 C.2         1 MOL       0.1966
     13 O15        65.8132   39.0487   28.4846 O.2         1 MOL      -0.3896
     14 O16        70.1035   38.1572   31.5890 O.3         1 MOL      -0.3239
     15 N3         67.1234   39.9727   26.9061 N.am        1 MOL      -0.2747
     16 C15        69.5765   39.1277   32.5100 C.3         1 MOL       0.0569
     17 H1         68.1986   39.5877   30.2544 H           1 MOL       0.0557
     18 H2         67.8417   36.8633   27.0494 H           1 MOL       0.0551
     19 H3         69.5492   35.4759   28.0409 H           1 MOL       0.0524
     20 H4         71.6550   36.4843   30.1739 H           1 MOL       0.2463
     21 H5         64.2105   40.4617   25.1565 H           1 MOL       0.0249
     22 H6         64.4134   39.2419   26.4264 H           1 MOL       0.0249
     23 H7         65.4053   39.1659   24.9520 H           1 MOL       0.0249
     24 H8         65.5507   41.3470   27.1152 H           1 MOL       0.0519
     25 H9         66.3565   41.4416   25.5762 H           1 MOL       0.0519
     26 H10        69.0470   39.2975   26.3237 H           1 MOL       0.0519
     27 H11        68.4028   40.5640   25.3268 H           1 MOL       0.0519
     28 H12        70.1928   41.4761   26.7219 H           1 MOL       0.0249
     29 H13        69.3864   40.9338   28.2030 H           1 MOL       0.0249
     30 H14        68.6543   42.2108   27.2106 H           1 MOL       0.0249
     31 H15        70.1583   39.0749   33.4311 H           1 MOL       0.0573
     32 H16        68.5298   38.9170   32.7511 H           1 MOL       0.0573
     33 H17        69.6639   40.1383   32.1002 H           1 MOL       0.0573
@<TRIPOS>BOND
     1     2     1  ar
     2     6     1  ar
     3     1     7   1
     4     3     2  ar
     5     2    14   1
     6     4     3  ar
     7     4     5  ar
     8    12     4   1
     9     5     6  ar
    10     9     8   1
    11    15     9   1
    12    10    11   1
    13    15    10   1
    14    12    13   2
    15    12    15  am
    16    14    16   1
    17     3    17   1
    18     5    18   1
    19     6    19   1
    20     7    20   1
    21     8    21   1
    22     8    22   1
    23     8    23   1
    24     9    24   1
    25     9    25   1
    26    10    26   1
    27    10    27   1
    28    11    28   1
    29    11    29   1
    30    11    30   1
    31    16    31   1
    32    16    32   1
    33    16    33   1
@<TRIPOS>SUBSTRUCTURE
     1  MOL      1

