@<TRIPOS>MOLECULE
2xdl_ligand_007
    33    33
SMALL
GAST_HUCK
****
This file was generated by PARSER (from files_GN.cpp)

@<TRIPOS>ATOM
      1 C1         71.7459   34.7264   29.1533 C.ar        1 MOL       0.1220
      2 C2         70.5917   35.4940   29.4072 C.ar        1 MOL       0.1250
      3 C3         69.4790   35.3495   28.5544 C.ar        1 MOL      -0.0217
      4 C4         69.5227   34.5024   27.4203 C.ar        1 MOL       0.0297
      5 C5         70.7133   33.7793   27.1591 C.ar        1 MOL      -0.0615
      6 C6         71.8049   33.8714   28.0357 C.ar        1 MOL      -0.0351
      7 O7         72.8028   34.8063   29.9986 O.3         1 MOL      -0.3332
      8 C9         67.3629   30.8520   26.0805 C.3         1 MOL      -0.0447
      9 C10        67.9190   32.0556   26.8838 C.3         1 MOL       0.0303
     10 C12        66.3297   33.5533   25.6683 C.3         1 MOL       0.0303
     11 C13        65.1323   33.5939   26.6452 C.3         1 MOL      -0.0447
     12 C14        68.4213   34.4526   26.5708 C.2         1 MOL       0.1966
     13 O15        68.1154   35.5657   26.1471 O.2         1 MOL      -0.3896
     14 O16        70.5504   36.2823   30.5320 O.3         1 MOL      -0.3239
     15 N3         67.6225   33.3841   26.3376 N.am        1 MOL      -0.2747
     16 C15        70.0635   37.6298   30.3461 C.3         1 MOL       0.0569
     17 H1         68.6270   35.8773   28.7763 H           1 MOL       0.0557
     18 H2         70.7846   33.1760   26.3408 H           1 MOL       0.0551
     19 H3         72.6447   33.3193   27.8609 H           1 MOL       0.0524
     20 H4         73.4860   35.3226   29.5239 H           1 MOL       0.2463
     21 H5         67.8348   29.9216   26.4157 H           1 MOL       0.0249
     22 H6         67.5673   30.9813   25.0159 H           1 MOL       0.0249
     23 H7         66.2842   30.7474   26.2258 H           1 MOL       0.0249
     24 H8         68.9899   31.8710   26.9763 H           1 MOL       0.0519
     25 H9         67.5263   31.9920   27.9022 H           1 MOL       0.0519
     26 H10        66.2720   34.4737   25.0798 H           1 MOL       0.0519
     27 H11        66.1684   32.7562   24.9427 H           1 MOL       0.0519
     28 H12        64.2176   33.8470   26.1091 H           1 MOL       0.0249
     29 H13        65.3003   34.3471   27.4185 H           1 MOL       0.0249
     30 H14        64.9933   32.6246   27.1178 H           1 MOL       0.0249
     31 H15        70.2677   38.1966   31.2559 H           1 MOL       0.0573
     32 H16        68.9845   37.6353   30.1730 H           1 MOL       0.0573
     33 H17        70.5627   38.1411   29.5173 H           1 MOL       0.0573
@<TRIPOS>BOND
     1     2     1  ar
     2     6     1  ar
     3     1     7   1
     4     3     2  ar
     5     2    14   1
     6     4     3  ar
     7     4     5  ar
     8    12     4   1
     9     5     6  ar
    10     9     8   1
    11    15     9   1
    12    10    11   1
    13    15    10   1
    14    12    13   2
    15    12    15  am
    16    14    16   1
    17     3    17   1
    18     5    18   1
    19     6    19   1
    20     7    20   1
    21     8    21   1
    22     8    22   1
    23     8    23   1
    24     9    24   1
    25     9    25   1
    26    10    26   1
    27    10    27   1
    28    11    28   1
    29    11    29   1
    30    11    30   1
    31    16    31   1
    32    16    32   1
    33    16    33   1
@<TRIPOS>SUBSTRUCTURE
     1  MOL      1

