@<TRIPOS>MOLECULE
2xdl_ligand_002
    33    33
SMALL
GAST_HUCK
****
This file was generated by PARSER (from files_GN.cpp)

@<TRIPOS>ATOM
      1 C1         62.6416   34.9003   24.1482 C.ar        1 MOL       0.1220
      2 C2         63.9506   35.0323   23.6342 C.ar        1 MOL       0.1250
      3 C3         65.0604   34.8232   24.4752 C.ar        1 MOL      -0.0217
      4 C4         64.8812   34.5339   25.8461 C.ar        1 MOL       0.0297
      5 C5         63.5717   34.4837   26.3717 C.ar        1 MOL      -0.0615
      6 C6         62.4635   34.6630   25.5245 C.ar        1 MOL      -0.0351
      7 O7         61.5710   35.0490   23.3228 O.3         1 MOL      -0.3332
      8 C9         69.0606   32.8018   26.8743 C.3         1 MOL      -0.0447
      9 C10        67.7925   33.0751   27.7186 C.3         1 MOL       0.0303
     10 C12        65.9867   31.9191   26.3510 C.3         1 MOL       0.0303
     11 C13        66.5399   30.5130   26.6989 C.3         1 MOL      -0.0447
     12 C14        65.9903   34.3381   26.6639 C.2         1 MOL       0.1966
     13 O15        66.4381   35.3874   27.1134 O.2         1 MOL      -0.3896
     14 O16        64.1648   35.3681   22.3228 O.3         1 MOL      -0.3239
     15 N3         66.5667   33.1421   26.9172 N.am        1 MOL      -0.2747
     16 C15        64.1614   36.7944   22.1167 C.3         1 MOL       0.0569
     17 H1         66.0024   34.8976   24.0807 H           1 MOL       0.0557
     18 H2         63.4173   34.3112   27.3707 H           1 MOL       0.0551
     19 H3         61.5216   34.6334   25.9194 H           1 MOL       0.0524
     20 H4         60.8209   34.5776   23.7500 H           1 MOL       0.2463
     21 H5         69.9460   32.8283   27.5174 H           1 MOL       0.0249
     22 H6         69.1693   33.5600   26.0911 H           1 MOL       0.0249
     23 H7         69.0031   31.8159   26.4109 H           1 MOL       0.0249
     24 H8         67.9824   34.0066   28.2629 H           1 MOL       0.0519
     25 H9         67.7091   32.3100   28.4876 H           1 MOL       0.0519
     26 H10        64.9353   31.8591   26.6520 H           1 MOL       0.0519
     27 H11        66.0136   32.0162   25.2586 H           1 MOL       0.0519
     28 H12        65.8894   29.7453   26.2509 H           1 MOL       0.0249
     29 H13        66.5469   30.3595   27.7806 H           1 MOL       0.0249
     30 H14        67.5456   30.3681   26.2968 H           1 MOL       0.0249
     31 H15        64.3925   36.9907   21.0703 H           1 MOL       0.0573
     32 H16        64.9169   37.2984   22.7262 H           1 MOL       0.0573
     33 H17        63.1776   37.2206   22.3322 H           1 MOL       0.0573
@<TRIPOS>BOND
     1     2     1  ar
     2     6     1  ar
     3     1     7   1
     4     3     2  ar
     5     2    14   1
     6     4     3  ar
     7     4     5  ar
     8    12     4   1
     9     5     6  ar
    10     9     8   1
    11    15     9   1
    12    10    11   1
    13    15    10   1
    14    12    13   2
    15    12    15  am
    16    14    16   1
    17     3    17   1
    18     5    18   1
    19     6    19   1
    20     7    20   1
    21     8    21   1
    22     8    22   1
    23     8    23   1
    24     9    24   1
    25     9    25   1
    26    10    26   1
    27    10    27   1
    28    11    28   1
    29    11    29   1
    30    11    30   1
    31    16    31   1
    32    16    32   1
    33    16    33   1
@<TRIPOS>SUBSTRUCTURE
     1  MOL      1

