@<TRIPOS>MOLECULE
2xdl_ligand_004
    33    33
SMALL
GAST_HUCK
****
This file was generated by PARSER (from files_GN.cpp)

@<TRIPOS>ATOM
      1 C1         69.9633   36.2837   29.3769 C.ar        1 MOL       0.1220
      2 C2         69.5274   35.6299   28.2051 C.ar        1 MOL       0.1250
      3 C3         68.4643   36.1829   27.4538 C.ar        1 MOL      -0.0217
      4 C4         67.7554   37.3183   27.9115 C.ar        1 MOL       0.0297
      5 C5         68.2256   37.9662   29.0829 C.ar        1 MOL      -0.0615
      6 C6         69.3174   37.4567   29.8063 C.ar        1 MOL      -0.0351
      7 O7         71.0072   35.7937   30.0955 O.3         1 MOL      -0.3332
      8 C9         65.7529   34.8628   25.4585 C.3         1 MOL      -0.0447
      9 C10        65.5274   35.6215   26.7933 C.3         1 MOL       0.0303
     10 C12        64.5601   37.7423   25.9437 C.3         1 MOL       0.0303
     11 C13        64.9035   38.1027   24.4778 C.3         1 MOL      -0.0447
     12 C14        66.6349   37.8001   27.2257 C.2         1 MOL       0.1966
     13 O15        66.5733   39.0258   27.1966 O.2         1 MOL      -0.3896
     14 O16        70.2045   34.4988   27.8084 O.3         1 MOL      -0.3239
     15 N3         65.6483   37.0715   26.6498 N.am        1 MOL      -0.2747
     16 C15        69.3657   33.4204   27.3319 C.3         1 MOL       0.0569
     17 H1         68.2094   35.7373   26.5656 H           1 MOL       0.0557
     18 H2         67.7569   38.8052   29.4336 H           1 MOL       0.0551
     19 H3         69.6270   37.9257   30.6600 H           1 MOL       0.0524
     20 H4         71.7267   36.4585   29.9811 H           1 MOL       0.2463
     21 H5         65.8527   33.7903   25.6499 H           1 MOL       0.0249
     22 H6         66.6627   35.2147   24.9679 H           1 MOL       0.0249
     23 H7         64.9101   35.0133   24.7817 H           1 MOL       0.0249
     24 H8         66.2161   35.2065   27.5337 H           1 MOL       0.0519
     25 H9         64.5232   35.3734   27.1588 H           1 MOL       0.0519
     26 H10        63.6529   37.1309   25.9103 H           1 MOL       0.0519
     27 H11        64.2793   38.6541   26.4792 H           1 MOL       0.0519
     28 H12        64.0492   38.6021   24.0122 H           1 MOL       0.0249
     29 H13        65.1310   37.1972   23.9108 H           1 MOL       0.0249
     30 H14        65.7620   38.7732   24.4272 H           1 MOL       0.0249
     31 H15        69.9779   32.5123   27.2797 H           1 MOL       0.0573
     32 H16        68.9927   33.6383   26.3206 H           1 MOL       0.0573
     33 H17        68.5114   33.2245   28.0003 H           1 MOL       0.0573
@<TRIPOS>BOND
     1     2     1  ar
     2     6     1  ar
     3     1     7   1
     4     3     2  ar
     5     2    14   1
     6     4     3  ar
     7     4     5  ar
     8    12     4   1
     9     5     6  ar
    10     9     8   1
    11    15     9   1
    12    10    11   1
    13    15    10   1
    14    12    13   2
    15    12    15  am
    16    14    16   1
    17     3    17   1
    18     5    18   1
    19     6    19   1
    20     7    20   1
    21     8    21   1
    22     8    22   1
    23     8    23   1
    24     9    24   1
    25     9    25   1
    26    10    26   1
    27    10    27   1
    28    11    28   1
    29    11    29   1
    30    11    30   1
    31    16    31   1
    32    16    32   1
    33    16    33   1
@<TRIPOS>SUBSTRUCTURE
     1  MOL      1

