@<TRIPOS>MOLECULE
2xdl_ligand_005
    33    33
SMALL
GAST_HUCK
****
This file was generated by PARSER (from files_GN.cpp)

@<TRIPOS>ATOM
      1 C1         70.0595   36.2031   29.3956 C.ar        1 MOL       0.1220
      2 C2         69.3756   37.4239   29.5773 C.ar        1 MOL       0.1250
      3 C3         68.3038   37.7573   28.7206 C.ar        1 MOL      -0.0217
      4 C4         67.8911   36.8702   27.7003 C.ar        1 MOL       0.0297
      5 C5         68.5716   35.6398   27.5450 C.ar        1 MOL      -0.0615
      6 C6         69.6509   35.3124   28.3863 C.ar        1 MOL      -0.0351
      7 O7         71.1065   35.8618   30.1866 O.3         1 MOL      -0.3332
      8 C9         68.4794   39.9790   25.7959 C.3         1 MOL      -0.0447
      9 C10        68.2387   38.5351   25.3033 C.3         1 MOL       0.0303
     10 C12        65.7856   38.2520   24.9185 C.3         1 MOL       0.0303
     11 C13        64.8414   39.3409   25.4788 C.3         1 MOL      -0.0447
     12 C14        66.8507   37.2052   26.8458 C.2         1 MOL       0.1966
     13 O15        65.7917   36.6624   27.1400 O.2         1 MOL      -0.3896
     14 O16        69.8079   38.3142   30.5228 O.3         1 MOL      -0.3239
     15 N3         66.9585   37.9939   25.7521 N.am        1 MOL      -0.2747
     16 C15        69.0458   38.2817   31.7410 C.3         1 MOL       0.0569
     17 H1         67.8218   38.6499   28.8518 H           1 MOL       0.0557
     18 H2         68.3011   34.9816   26.8072 H           1 MOL       0.0551
     19 H3         70.1576   34.4349   28.2421 H           1 MOL       0.0524
     20 H4         71.7807   36.5608   30.0412 H           1 MOL       0.2463
     21 H5         69.4680   40.3184   25.4833 H           1 MOL       0.0249
     22 H6         68.4259   40.0289   26.8821 H           1 MOL       0.0249
     23 H7         67.7366   40.6565   25.3770 H           1 MOL       0.0249
     24 H8         69.0830   37.9197   25.6235 H           1 MOL       0.0519
     25 H9         68.2973   38.5348   24.2121 H           1 MOL       0.0519
     26 H10        66.0638   38.5693   23.9105 H           1 MOL       0.0519
     27 H11        65.2136   37.3297   24.7797 H           1 MOL       0.0519
     28 H12        63.9686   39.4369   24.8287 H           1 MOL       0.0249
     29 H13        65.3457   40.3072   25.5111 H           1 MOL       0.0249
     30 H14        64.4996   39.0871   26.4830 H           1 MOL       0.0249
     31 H15        69.5162   38.9601   32.4525 H           1 MOL       0.0573
     32 H16        69.0314   37.2806   32.1807 H           1 MOL       0.0573
     33 H17        68.0213   38.6231   31.5753 H           1 MOL       0.0573
@<TRIPOS>BOND
     1     2     1  ar
     2     6     1  ar
     3     1     7   1
     4     3     2  ar
     5     2    14   1
     6     4     3  ar
     7     4     5  ar
     8    12     4   1
     9     5     6  ar
    10     9     8   1
    11    15     9   1
    12    10    11   1
    13    15    10   1
    14    12    13   2
    15    12    15  am
    16    14    16   1
    17     3    17   1
    18     5    18   1
    19     6    19   1
    20     7    20   1
    21     8    21   1
    22     8    22   1
    23     8    23   1
    24     9    24   1
    25     9    25   1
    26    10    26   1
    27    10    27   1
    28    11    28   1
    29    11    29   1
    30    11    30   1
    31    16    31   1
    32    16    32   1
    33    16    33   1
@<TRIPOS>SUBSTRUCTURE
     1  MOL      1

