@<TRIPOS>MOLECULE
2xdl_ligand_008
    33    33
SMALL
GAST_HUCK
****
This file was generated by PARSER (from files_GN.cpp)

@<TRIPOS>ATOM
      1 C1         69.8522   37.6149   30.3984 C.ar        1 MOL       0.1220
      2 C2         69.9031   38.8243   31.1351 C.ar        1 MOL       0.1250
      3 C3         70.0301   40.0440   30.4351 C.ar        1 MOL      -0.0217
      4 C4         70.0501   40.0734   29.0186 C.ar        1 MOL       0.0297
      5 C5         69.9738   38.8618   28.3010 C.ar        1 MOL      -0.0615
      6 C6         69.8929   37.6379   28.9893 C.ar        1 MOL      -0.0351
      7 O7         69.7479   36.4242   31.0329 O.3         1 MOL      -0.3332
      8 C9         73.4728   41.6273   28.8828 C.3         1 MOL      -0.0447
      9 C10        72.4845   41.1833   27.7828 C.3         1 MOL       0.0303
     10 C12        71.1447   43.2273   27.2968 C.3         1 MOL       0.0303
     11 C13        70.9455   43.2623   25.7651 C.3         1 MOL      -0.0447
     12 C14        70.0928   41.2935   28.3623 C.2         1 MOL       0.1966
     13 O15        69.0241   41.8896   28.3914 O.2         1 MOL      -0.3896
     14 O16        69.9229   38.7630   32.5071 O.3         1 MOL      -0.3239
     15 N3         71.1971   41.8696   27.8356 N.am        1 MOL      -0.2747
     16 C15        68.8152   39.4028   33.1781 C.3         1 MOL       0.0569
     17 H1         70.1088   40.9152   30.9735 H           1 MOL       0.0557
     18 H2         69.9671   38.8537   27.2787 H           1 MOL       0.0551
     19 H3         69.8493   36.7579   28.4694 H           1 MOL       0.0524
     20 H4         68.8526   36.4532   31.4342 H           1 MOL       0.2463
     21 H5         74.3594   40.9908   28.8644 H           1 MOL       0.0249
     22 H6         73.0026   41.5320   29.8623 H           1 MOL       0.0249
     23 H7         73.7820   42.6633   28.7370 H           1 MOL       0.0249
     24 H8         72.3838   40.0966   27.8702 H           1 MOL       0.0519
     25 H9         72.9509   41.3482   26.8053 H           1 MOL       0.0519
     26 H10        70.3381   43.8158   27.7411 H           1 MOL       0.0519
     27 H11        72.0633   43.7692   27.5358 H           1 MOL       0.0519
     28 H12        70.8686   44.2968   25.4239 H           1 MOL       0.0249
     29 H13        70.0270   42.7391   25.4961 H           1 MOL       0.0249
     30 H14        71.7865   42.7917   25.2514 H           1 MOL       0.0249
     31 H15        68.8666   39.1603   34.2410 H           1 MOL       0.0573
     32 H16        67.8531   39.0465   32.8090 H           1 MOL       0.0573
     33 H17        68.8682   40.4866   33.0735 H           1 MOL       0.0573
@<TRIPOS>BOND
     1     2     1  ar
     2     6     1  ar
     3     1     7   1
     4     3     2  ar
     5     2    14   1
     6     4     3  ar
     7     4     5  ar
     8    12     4   1
     9     5     6  ar
    10     9     8   1
    11    15     9   1
    12    10    11   1
    13    15    10   1
    14    12    13   2
    15    12    15  am
    16    14    16   1
    17     3    17   1
    18     5    18   1
    19     6    19   1
    20     7    20   1
    21     8    21   1
    22     8    22   1
    23     8    23   1
    24     9    24   1
    25     9    25   1
    26    10    26   1
    27    10    27   1
    28    11    28   1
    29    11    29   1
    30    11    30   1
    31    16    31   1
    32    16    32   1
    33    16    33   1
@<TRIPOS>SUBSTRUCTURE
     1  MOL      1

