@<TRIPOS>MOLECULE
2xdl_ligand_014
    33    33
SMALL
GAST_HUCK
****
This file was generated by PARSER (from files_GN.cpp)

@<TRIPOS>ATOM
      1 C1         71.8023   40.9599   26.5272 C.ar        1 MOL       0.1220
      2 C2         72.2654   40.7573   27.8465 C.ar        1 MOL       0.1250
      3 C3         71.3201   40.6512   28.8889 C.ar        1 MOL      -0.0217
      4 C4         69.9358   40.7962   28.6524 C.ar        1 MOL       0.0297
      5 C5         69.4973   41.0593   27.3329 C.ar        1 MOL      -0.0615
      6 C6         70.4203   41.1256   26.2774 C.ar        1 MOL      -0.0351
      7 O7         72.6764   40.9829   25.4956 O.3         1 MOL      -0.3332
      8 C9         69.2402   37.4420   29.5981 C.3         1 MOL      -0.0447
      9 C10        68.1806   38.4860   29.1665 C.3         1 MOL       0.0303
     10 C12        67.2944   39.7797   31.1201 C.3         1 MOL       0.0303
     11 C13        67.9270   39.2846   32.4440 C.3         1 MOL      -0.0447
     12 C14        69.0513   40.7184   29.7190 C.2         1 MOL       0.1966
     13 O15        69.1400   41.6704   30.4894 O.2         1 MOL      -0.3896
     14 O16        73.6081   40.5618   28.0540 O.3         1 MOL      -0.3239
     15 N3         68.1946   39.7016   29.9750 N.am        1 MOL      -0.2747
     16 C15        74.2259   41.2930   29.1342 C.3         1 MOL       0.0569
     17 H1         71.6519   40.4431   29.8329 H           1 MOL       0.0557
     18 H2         68.5043   41.1994   27.1271 H           1 MOL       0.0551
     19 H3         70.0955   41.2921   25.3241 H           1 MOL       0.0524
     20 H4         72.2279   40.5000   24.7615 H           1 MOL       0.2463
     21 H5         69.1931   36.5742   28.9369 H           1 MOL       0.0249
     22 H6         69.0563   37.1026   30.6175 H           1 MOL       0.0249
     23 H7         70.2461   37.8621   29.5449 H           1 MOL       0.0249
     24 H8         67.2037   37.9959   29.2036 H           1 MOL       0.0519
     25 H9         68.3320   38.7184   28.1121 H           1 MOL       0.0519
     26 H10        66.9567   40.8086   31.2728 H           1 MOL       0.0519
     27 H11        66.3767   39.2039   30.9530 H           1 MOL       0.0519
     28 H12        67.2166   39.4125   33.2635 H           1 MOL       0.0249
     29 H13        68.8292   39.8508   32.6766 H           1 MOL       0.0249
     30 H14        68.1816   38.2266   32.3766 H           1 MOL       0.0249
     31 H15        75.3081   41.1476   29.0749 H           1 MOL       0.0573
     32 H16        73.9052   40.9173   30.1059 H           1 MOL       0.0573
     33 H17        74.0256   42.3662   29.0748 H           1 MOL       0.0573
@<TRIPOS>BOND
     1     2     1  ar
     2     6     1  ar
     3     1     7   1
     4     3     2  ar
     5     2    14   1
     6     4     3  ar
     7     4     5  ar
     8    12     4   1
     9     5     6  ar
    10     9     8   1
    11    15     9   1
    12    10    11   1
    13    15    10   1
    14    12    13   2
    15    12    15  am
    16    14    16   1
    17     3    17   1
    18     5    18   1
    19     6    19   1
    20     7    20   1
    21     8    21   1
    22     8    22   1
    23     8    23   1
    24     9    24   1
    25     9    25   1
    26    10    26   1
    27    10    27   1
    28    11    28   1
    29    11    29   1
    30    11    30   1
    31    16    31   1
    32    16    32   1
    33    16    33   1
@<TRIPOS>SUBSTRUCTURE
     1  MOL      1

