@<TRIPOS>MOLECULE
2xdl_ligand_009
    33    33
SMALL
GAST_HUCK
****
This file was generated by PARSER (from files_GN.cpp)

@<TRIPOS>ATOM
      1 C1         69.9755   36.3881   29.4756 C.ar        1 MOL       0.1220
      2 C2         69.3715   37.6085   29.8384 C.ar        1 MOL       0.1250
      3 C3         68.2822   38.0966   29.0876 C.ar        1 MOL      -0.0217
      4 C4         67.7459   37.3706   27.9892 C.ar        1 MOL       0.0297
      5 C5         68.3966   36.1631   27.6299 C.ar        1 MOL      -0.0615
      6 C6         69.4843   35.6647   28.3744 C.ar        1 MOL      -0.0351
      7 O7         71.0243   35.8967   30.1828 O.3         1 MOL      -0.3332
      8 C9         65.6912   34.9572   25.4909 C.3         1 MOL      -0.0447
      9 C10        65.4709   35.7426   26.8102 C.3         1 MOL       0.0303
     10 C12        64.6239   37.8961   25.8994 C.3         1 MOL       0.0303
     11 C13        65.1004   38.3524   24.4979 C.3         1 MOL      -0.0447
     12 C14        66.6574   37.8808   27.2629 C.2         1 MOL       0.1966
     13 O15        66.6325   39.1090   27.2167 O.2         1 MOL      -0.3896
     14 O16        69.9015   38.3505   30.8556 O.3         1 MOL      -0.3239
     15 N3         65.6649   37.1852   26.6527 N.am        1 MOL      -0.2747
     16 C15        69.1447   38.3038   32.0780 C.3         1 MOL       0.0569
     17 H1         67.8638   38.9913   29.3677 H           1 MOL       0.0557
     18 H2         68.0873   35.6341   26.8107 H           1 MOL       0.0551
     19 H3         69.9407   34.7932   28.0905 H           1 MOL       0.0524
     20 H4         71.7379   36.5661   30.0808 H           1 MOL       0.2463
     21 H5         65.6537   33.8839   25.6966 H           1 MOL       0.0249
     22 H6         66.6672   35.1947   25.0520 H           1 MOL       0.0249
     23 H7         64.9091   35.1948   24.7677 H           1 MOL       0.0249
     24 H8         66.1159   35.3073   27.5757 H           1 MOL       0.0519
     25 H9         64.4482   35.5534   27.1602 H           1 MOL       0.0519
     26 H10        63.7330   37.2811   25.7487 H           1 MOL       0.0519
     27 H11        64.2827   38.7697   26.4605 H           1 MOL       0.0519
     28 H12        64.2813   38.8520   23.9735 H           1 MOL       0.0249
     29 H13        65.4165   37.4849   23.9130 H           1 MOL       0.0249
     30 H14        65.9337   39.0475   24.5747 H           1 MOL       0.0249
     31 H15        69.7049   38.8408   32.8476 H           1 MOL       0.0573
     32 H16        68.9938   37.2764   32.4156 H           1 MOL       0.0573
     33 H17        68.1732   38.7995   31.9587 H           1 MOL       0.0573
@<TRIPOS>BOND
     1     2     1  ar
     2     6     1  ar
     3     1     7   1
     4     3     2  ar
     5     2    14   1
     6     4     3  ar
     7     4     5  ar
     8    12     4   1
     9     5     6  ar
    10     9     8   1
    11    15     9   1
    12    10    11   1
    13    15    10   1
    14    12    13   2
    15    12    15  am
    16    14    16   1
    17     3    17   1
    18     5    18   1
    19     6    19   1
    20     7    20   1
    21     8    21   1
    22     8    22   1
    23     8    23   1
    24     9    24   1
    25     9    25   1
    26    10    26   1
    27    10    27   1
    28    11    28   1
    29    11    29   1
    30    11    30   1
    31    16    31   1
    32    16    32   1
    33    16    33   1
@<TRIPOS>SUBSTRUCTURE
     1  MOL      1

