@<TRIPOS>MOLECULE
2xdl_ligand_006
    33    33
SMALL
GAST_HUCK
****
This file was generated by PARSER (from files_GN.cpp)

@<TRIPOS>ATOM
      1 C1         69.9735   36.3262   29.4199 C.ar        1 MOL       0.1220
      2 C2         69.5047   35.3965   28.4697 C.ar        1 MOL       0.1250
      3 C3         68.3753   35.7228   27.6905 C.ar        1 MOL      -0.0217
      4 C4         67.7600   36.9871   27.7975 C.ar        1 MOL       0.0297
      5 C5         68.2419   37.9115   28.7534 C.ar        1 MOL      -0.0615
      6 C6         69.3359   37.5689   29.5733 C.ar        1 MOL      -0.0351
      7 O7         71.0185   35.9968   30.2141 O.3         1 MOL      -0.3332
      8 C9         68.4950   39.9972   25.7788 C.3         1 MOL      -0.0447
      9 C10        68.2307   38.5365   25.3474 C.3         1 MOL       0.0303
     10 C12        65.7870   38.3117   24.9000 C.3         1 MOL       0.0303
     11 C13        64.8245   39.3991   25.4334 C.3         1 MOL      -0.0447
     12 C14        66.7466   37.3315   26.9092 C.2         1 MOL       0.1966
     13 O15        65.6717   36.8103   27.1713 O.2         1 MOL      -0.3896
     14 O16        70.1094   34.1672   28.3955 O.3         1 MOL      -0.3239
     15 N3         66.9196   38.0561   25.7840 N.am        1 MOL      -0.2747
     16 C15        70.4116   33.6716   27.0762 C.3         1 MOL       0.0569
     17 H1         68.0224   35.0268   27.0259 H           1 MOL       0.0557
     18 H2         67.8102   38.8304   28.8689 H           1 MOL       0.0551
     19 H3         69.6738   38.2356   30.2759 H           1 MOL       0.0524
     20 H4         71.7165   36.6631   30.0095 H           1 MOL       0.2463
     21 H5         69.4979   40.3001   25.4650 H           1 MOL       0.0249
     22 H6         68.4279   40.0893   26.8631 H           1 MOL       0.0249
     23 H7         67.7721   40.6692   25.3204 H           1 MOL       0.0249
     24 H8         69.0545   37.9273   25.7294 H           1 MOL       0.0519
     25 H9         68.3160   38.4704   24.2591 H           1 MOL       0.0519
     26 H10        66.1050   38.6288   23.9009 H           1 MOL       0.0519
     27 H11        65.2242   37.3842   24.7432 H           1 MOL       0.0519
     28 H12        63.9884   39.5253   24.7420 H           1 MOL       0.0249
     29 H13        65.3490   40.3492   25.5233 H           1 MOL       0.0249
     30 H14        64.4226   39.1235   26.4082 H           1 MOL       0.0249
     31 H15        70.9891   32.7574   27.1793 H           1 MOL       0.0573
     32 H16        71.0022   34.3804   26.4864 H           1 MOL       0.0573
     33 H17        69.4934   33.4308   26.5325 H           1 MOL       0.0573
@<TRIPOS>BOND
     1     2     1  ar
     2     6     1  ar
     3     1     7   1
     4     3     2  ar
     5     2    14   1
     6     4     3  ar
     7     4     5  ar
     8    12     4   1
     9     5     6  ar
    10     9     8   1
    11    15     9   1
    12    10    11   1
    13    15    10   1
    14    12    13   2
    15    12    15  am
    16    14    16   1
    17     3    17   1
    18     5    18   1
    19     6    19   1
    20     7    20   1
    21     8    21   1
    22     8    22   1
    23     8    23   1
    24     9    24   1
    25     9    25   1
    26    10    26   1
    27    10    27   1
    28    11    28   1
    29    11    29   1
    30    11    30   1
    31    16    31   1
    32    16    32   1
    33    16    33   1
@<TRIPOS>SUBSTRUCTURE
     1  MOL      1

