@<TRIPOS>MOLECULE
2xdl_ligand_011
    33    33
SMALL
GAST_HUCK
****
This file was generated by PARSER (from files_GN.cpp)

@<TRIPOS>ATOM
      1 C1         69.7704   37.4157   30.2057 C.ar        1 MOL       0.1220
      2 C2         69.9702   38.6498   30.8503 C.ar        1 MOL       0.1250
      3 C3         70.1335   39.8162   30.0693 C.ar        1 MOL      -0.0217
      4 C4         70.0531   39.7655   28.6633 C.ar        1 MOL       0.0297
      5 C5         69.8348   38.5177   28.0316 C.ar        1 MOL      -0.0615
      6 C6         69.6937   37.3512   28.8007 C.ar        1 MOL      -0.0351
      7 O7         69.6316   36.2828   30.9337 O.3         1 MOL      -0.3332
      8 C9         67.1153   41.4343   26.1918 C.3         1 MOL      -0.0447
      9 C10        67.8064   41.3660   27.5843 C.3         1 MOL       0.0303
     10 C12        69.5392   43.0877   27.0344 C.3         1 MOL       0.0303
     11 C13        70.3690   43.9652   28.0080 C.3         1 MOL      -0.0447
     12 C14        70.2116   40.9236   27.9172 C.2         1 MOL       0.1966
     13 O15        71.3821   41.1786   27.6580 O.2         1 MOL      -0.3896
     14 O16        70.1079   38.6650   32.2179 O.3         1 MOL      -0.3239
     15 N3         69.2157   41.7563   27.5420 N.am        1 MOL      -0.2747
     16 C15        69.0708   39.3688   32.9258 C.3         1 MOL       0.0569
     17 H1         70.3233   40.7054   30.5442 H           1 MOL       0.0557
     18 H2         69.7791   38.4519   27.0100 H           1 MOL       0.0551
     19 H3         69.5428   36.4496   28.3384 H           1 MOL       0.0524
     20 H4         68.7639   36.4009   31.3721 H           1 MOL       0.2463
     21 H5         66.1243   40.9854   26.2516 H           1 MOL       0.0249
     22 H6         67.6972   40.8926   25.4444 H           1 MOL       0.0249
     23 H7         66.9949   42.4639   25.8584 H           1 MOL       0.0249
     24 H8         67.6568   40.3491   27.9491 H           1 MOL       0.0519
     25 H9         67.2680   42.0216   28.2737 H           1 MOL       0.0519
     26 H10        70.0847   42.9982   26.0925 H           1 MOL       0.0519
     27 H11        68.6323   43.6570   26.8166 H           1 MOL       0.0519
     28 H12        70.4804   44.9649   27.5906 H           1 MOL       0.0249
     29 H13        71.3686   43.5569   28.1570 H           1 MOL       0.0249
     30 H14        69.8777   44.0429   28.9774 H           1 MOL       0.0249
     31 H15        69.2175   39.2112   33.9936 H           1 MOL       0.0573
     32 H16        68.0772   38.9975   32.6612 H           1 MOL       0.0573
     33 H17        69.1224   40.4430   32.7327 H           1 MOL       0.0573
@<TRIPOS>BOND
     1     2     1  ar
     2     6     1  ar
     3     1     7   1
     4     3     2  ar
     5     2    14   1
     6     4     3  ar
     7     4     5  ar
     8    12     4   1
     9     5     6  ar
    10     9     8   1
    11    15     9   1
    12    10    11   1
    13    15    10   1
    14    12    13   2
    15    12    15  am
    16    14    16   1
    17     3    17   1
    18     5    18   1
    19     6    19   1
    20     7    20   1
    21     8    21   1
    22     8    22   1
    23     8    23   1
    24     9    24   1
    25     9    25   1
    26    10    26   1
    27    10    27   1
    28    11    28   1
    29    11    29   1
    30    11    30   1
    31    16    31   1
    32    16    32   1
    33    16    33   1
@<TRIPOS>SUBSTRUCTURE
     1  MOL      1

