@<TRIPOS>MOLECULE
2xhm_ligand_016
    69    70
SMALL
GAST_HUCK
****
This file was generated by PARSER (from files_GN.cpp)

@<TRIPOS>ATOM
      1 CAR       -12.5494   25.5967  -10.9996 C.ar        1 K26      -0.0686
      2 CAN       -11.4492   26.2663  -11.5674 C.ar        1 K26      -0.0398
      3 CBD       -10.1600   26.0905  -11.0284 C.ar        1 K26       0.0805
      4 OAI        -9.0938   26.7185  -11.5753 O.3         1 K26      -0.3376
      5 CAO        -9.9796   25.2490   -9.9142 C.ar        1 K26      -0.0398
      6 CAS       -11.0794   24.5769   -9.3532 C.ar        1 K26      -0.0686
      7 CBF       -12.3808   24.7262   -9.8960 C.ar        1 K26      -0.0501
      8 CAV       -13.5400   23.9908   -9.3184 C.3         1 K26       0.0145
      9 CBI       -14.3237   23.0391  -10.2784 C.3         1 K26       0.1207
     10 PBK       -13.3971   21.8491  -11.0034 P.3         1 K26       0.0863
     11 OAJ       -12.1750   22.3431  -11.5883 O.co2       1 K26      -0.5606
     12 OAK       -13.0650   20.7603  -10.1169 O.co2       1 K26      -0.5606
     13 OAG       -14.1704   21.3403  -12.1096 O.co2       1 K26      -0.5606
     14 NAY       -15.3913   22.4372   -9.5147 N.am        1 K26      -0.2653
     15 C         -16.3535   21.6085   -9.9197 C.2         1 K26       0.2049
     16 O         -16.4583   21.3220  -11.1073 O.2         1 K26      -0.3943
     17 CA        -17.3802   21.1612   -8.9654 C.3         1 K26       0.1389
     18 N         -18.3554   22.1959   -8.8019 N.am        1 K26      -0.2621
     19 CBB       -19.4933   22.3835   -9.4660 C.2         1 K26       0.2043
     20 OAF       -19.8160   21.5954  -10.3466 O.2         1 K26      -0.3944
     21 CBJ       -20.3675   23.5264   -9.1767 C.3         1 K26       0.1334
     22 CBG       -19.9545   24.8646   -9.8983 C.3         1 K26      -0.0037
     23 CAC       -18.4404   24.9783  -10.2423 C.3         1 K26      -0.0582
     24 CAT       -20.8488   25.2483  -11.1220 C.3         1 K26      -0.0491
     25 CAA       -21.0182   24.1996  -12.2424 C.3         1 K26      -0.0648
     26 NAX       -20.4337   23.7409   -7.7501 N.am        1 K26      -0.2656
     27 CAZ       -21.3782   23.3302   -6.9130 C.2         1 K26       0.1751
     28 CAB       -21.2034   23.5824   -5.5016 C.3         1 K26       0.0258
     29 OAD       -22.3764   22.7217   -7.2960 O.2         1 K26      -0.3972
     30 CB        -17.9631   19.7183   -9.2047 C.3         1 K26       0.0163
     31 CG        -19.4214   19.5467   -8.9232 C.ar        1 K26      -0.0493
     32 CD1       -20.0007   20.0724   -7.7420 C.ar        1 K26      -0.0685
     33 CE1       -21.3980   20.0427   -7.5492 C.ar        1 K26      -0.0398
     34 CZ        -22.2351   19.4459   -8.5107 C.ar        1 K26       0.0805
     35 OH        -23.5888   19.5237   -8.4097 O.3         1 K26      -0.3376
     36 CE2       -21.6591   18.8366   -9.6392 C.ar        1 K26      -0.0398
     37 CD2       -20.2666   18.8780   -9.8406 C.ar        1 K26      -0.0685
     38 H1        -13.4778   25.7444  -11.4016 H           1 K26       0.0530
     39 H2        -11.5851   26.8717  -12.3789 H           1 K26       0.0525
     40 H3         -9.1613   27.6487  -11.2643 H           1 K26       0.2458
     41 H4         -9.0461   25.1230   -9.5142 H           1 K26       0.0525
     42 H5        -10.9210   23.9664   -8.5449 H           1 K26       0.0530
     43 H6        -14.2371   24.7481   -8.9481 H           1 K26       0.0442
     44 H7        -13.2192   23.4114   -8.4454 H           1 K26       0.0442
     45 H8        -14.7550   23.6530  -11.0686 H           1 K26       0.0771
     46 H9        -15.4614   22.7342   -8.5956 H           1 K26       0.1870
     47 H10       -16.9047   21.1155   -7.9845 H           1 K26       0.0821
     48 H11       -18.1617   22.8301   -8.0892 H           1 K26       0.1885
     49 H12       -21.3668   23.2473   -9.5257 H           1 K26       0.0803
     50 H13       -20.1249   25.6687   -9.1839 H           1 K26       0.0345
     51 H14       -18.1965   26.0031  -10.5578 H           1 K26       0.0235
     52 H15       -18.1664   24.2949  -11.0508 H           1 K26       0.0235
     53 H16       -17.8296   24.7381   -9.3704 H           1 K26       0.0235
     54 H17       -20.4508   26.1625  -11.5793 H           1 K26       0.0267
     55 H18       -21.8467   25.4974  -10.7444 H           1 K26       0.0267
     56 H19       -21.5429   24.6478  -13.0887 H           1 K26       0.0230
     57 H20       -21.6072   23.3515  -11.8867 H           1 K26       0.0230
     58 H21       -20.0485   23.8421  -12.5880 H           1 K26       0.0230
     59 H22       -19.6770   24.1956   -7.3482 H           1 K26       0.1883
     60 H23       -22.0389   23.1944   -4.9159 H           1 K26       0.0467
     61 H24       -21.1291   24.6569   -5.3311 H           1 K26       0.0467
     62 H25       -20.2868   23.1030   -5.1553 H           1 K26       0.0467
     63 H26       -17.4158   19.0086   -8.5729 H           1 K26       0.0453
     64 H27       -17.7478   19.4085  -10.2316 H           1 K26       0.0453
     65 H28       -19.4207   20.5515   -7.0530 H           1 K26       0.0530
     66 H29       -21.8098   20.4972   -6.7295 H           1 K26       0.0525
     67 H30       -23.8588   18.7746   -7.8387 H           1 K26       0.2458
     68 H31       -22.2621   18.3937  -10.3386 H           1 K26       0.0525
     69 H32       -19.8857   18.4724  -10.7020 H           1 K26       0.0530
@<TRIPOS>BOND
     1     1     2  ar
     2     1     7  ar
     3     2     3  ar
     4     3     4   1
     5     3     5  ar
     6     5     6  ar
     7     6     7  ar
     8     7     8   1
     9     8     9   1
    10     9    10   1
    11     9    14   1
    12    10    11  ar
    13    10    12  ar
    14    10    13  ar
    15    14    15  am
    16    15    16   2
    17    15    17   1
    18    17    18   1
    19    17    30   1
    20    18    19  am
    21    19    20   2
    22    19    21   1
    23    21    22   1
    24    21    26   1
    25    22    23   1
    26    22    24   1
    27    24    25   1
    28    26    27  am
    29    27    28   1
    30    27    29   2
    31    30    31   1
    32    31    32  ar
    33    31    37  ar
    34    32    33  ar
    35    33    34  ar
    36    34    35   1
    37    34    36  ar
    38    36    37  ar
    39     1    38   1
    40     2    39   1
    41     4    40   1
    42     5    41   1
    43     6    42   1
    44     8    43   1
    45     8    44   1
    46     9    45   1
    47    14    46   1
    48    17    47   1
    49    18    48   1
    50    21    49   1
    51    22    50   1
    52    23    51   1
    53    23    52   1
    54    23    53   1
    55    24    54   1
    56    24    55   1
    57    25    56   1
    58    25    57   1
    59    25    58   1
    60    26    59   1
    61    28    60   1
    62    28    61   1
    63    28    62   1
    64    30    63   1
    65    30    64   1
    66    32    65   1
    67    33    66   1
    68    35    67   1
    69    36    68   1
    70    37    69   1
@<TRIPOS>SUBSTRUCTURE
     1  K26      1

