@<TRIPOS>MOLECULE
2xhm_ligand_033
    69    70
SMALL
GAST_HUCK
****
This file was generated by PARSER (from files_GN.cpp)

@<TRIPOS>ATOM
      1 CAR        -7.8325   26.3085  -15.5535 C.ar        1 K26      -0.0686
      2 CAN        -8.4966   27.5428  -15.6659 C.ar        1 K26      -0.0398
      3 CBD        -8.0447   28.6562  -14.9346 C.ar        1 K26       0.0805
      4 OAI        -8.6927   29.8410  -15.0660 O.3         1 K26      -0.3376
      5 CAO        -6.9274   28.5265  -14.0876 C.ar        1 K26      -0.0398
      6 CAS        -6.2757   27.2840  -13.9627 C.ar        1 K26      -0.0686
      7 CBF        -6.7318   26.1453  -14.6763 C.ar        1 K26      -0.0501
      8 CAV        -6.0749   24.8087  -14.5324 C.3         1 K26       0.0145
      9 CBI        -7.0583   23.6393  -14.1428 C.3         1 K26       0.1207
     10 PBK        -6.6393   22.1832  -14.8309 P.3         1 K26       0.0863
     11 OAJ        -7.6940   21.2161  -14.6151 O.co2       1 K26      -0.5606
     12 OAK        -6.4765   22.2988  -16.2645 O.co2       1 K26      -0.5606
     13 OAG        -5.4188   21.6388  -14.2822 O.co2       1 K26      -0.5606
     14 NAY        -7.2007   23.3909  -12.7316 N.am        1 K26      -0.2653
     15 C          -7.4226   24.2634  -11.7620 C.2         1 K26       0.2049
     16 O          -7.4444   25.4674  -11.9785 O.2         1 K26      -0.3943
     17 CA         -7.7194   23.8028  -10.4101 C.3         1 K26       0.1389
     18 N          -9.0220   23.1939  -10.3680 N.am        1 K26      -0.2621
     19 CBB       -10.1825   23.7799  -10.6617 C.2         1 K26       0.2043
     20 OAF       -10.2149   24.9388  -11.0641 O.2         1 K26      -0.3944
     21 CBJ       -11.4337   23.1485  -10.2384 C.3         1 K26       0.1334
     22 CBG       -12.7446   23.6653  -10.9496 C.3         1 K26      -0.0037
     23 CAC       -12.6777   23.5617  -12.5074 C.3         1 K26      -0.0582
     24 CAT       -14.0598   23.0042  -10.4086 C.3         1 K26      -0.0491
     25 CAA       -14.2179   21.4796  -10.6306 C.3         1 K26      -0.0648
     26 NAX       -11.5774   23.1449   -8.7994 N.am        1 K26      -0.2656
     27 CAZ       -11.0329   23.9061   -7.8567 C.2         1 K26       0.1751
     28 CAB       -11.2830   23.5701   -6.4731 C.3         1 K26       0.0258
     29 OAD       -10.3008   24.8552   -8.1081 O.2         1 K26      -0.3972
     30 CB         -6.6489   22.8321   -9.8151 C.3         1 K26       0.0163
     31 CG         -5.2415   23.2622  -10.0595 C.ar        1 K26      -0.0493
     32 CD1        -4.6857   24.3481   -9.3404 C.ar        1 K26      -0.0685
     33 CE1        -3.3859   24.8053   -9.6268 C.ar        1 K26      -0.0398
     34 CZ         -2.6250   24.1952  -10.6407 C.ar        1 K26       0.0805
     35 OH         -1.3829   24.6695  -10.9139 O.3         1 K26      -0.3376
     36 CE2        -3.1665   23.1077  -11.3566 C.ar        1 K26      -0.0398
     37 CD2        -4.4575   22.6388  -11.0580 C.ar        1 K26      -0.0685
     38 H1         -8.1682   25.5222  -16.1108 H           1 K26       0.0530
     39 H2         -9.3082   27.6304  -16.2825 H           1 K26       0.0525
     40 H3         -8.0091   30.5345  -14.9130 H           1 K26       0.2458
     41 H4         -6.5933   29.3314  -13.5565 H           1 K26       0.0525
     42 H5         -5.4704   27.2123  -13.3335 H           1 K26       0.0530
     43 H6         -5.2641   24.8471  -13.8011 H           1 K26       0.0442
     44 H7         -5.5910   24.6264  -15.4997 H           1 K26       0.0442
     45 H8         -8.0589   23.8606  -14.5162 H           1 K26       0.0771
     46 H9         -7.2157   22.4513  -12.4608 H           1 K26       0.1870
     47 H10        -7.7589   24.6655   -9.7304 H           1 K26       0.0821
     48 H11        -9.0647   22.2923  -10.0120 H           1 K26       0.1885
     49 H12       -11.3416   22.0920  -10.5101 H           1 K26       0.0803
     50 H13       -12.8325   24.7287  -10.7144 H           1 K26       0.0345
     51 H14       -13.6311   23.8547  -12.9537 H           1 K26       0.0235
     52 H15       -12.4488   22.5410  -12.8201 H           1 K26       0.0235
     53 H16       -11.9095   24.2248  -12.9108 H           1 K26       0.0235
     54 H17       -14.9141   23.4974  -10.8777 H           1 K26       0.0267
     55 H18       -14.1477   23.2014   -9.3372 H           1 K26       0.0267
     56 H19       -15.1672   21.1518  -10.2037 H           1 K26       0.0230
     57 H20       -13.4144   20.9302  -10.1414 H           1 K26       0.0230
     58 H21       -14.2204   21.2373  -11.6944 H           1 K26       0.0230
     59 H22       -12.1647   22.4511   -8.4658 H           1 K26       0.1883
     60 H23       -10.7030   24.1950   -5.7891 H           1 K26       0.0467
     61 H24       -11.0065   22.5299   -6.2926 H           1 K26       0.0467
     62 H25       -12.3402   23.7017   -6.2407 H           1 K26       0.0467
     63 H26        -6.8130   21.8300  -10.2215 H           1 K26       0.0453
     64 H27        -6.8099   22.7554   -8.7332 H           1 K26       0.0453
     65 H28        -5.2281   24.8141   -8.6097 H           1 K26       0.0530
     66 H29        -2.9983   25.5905   -9.0982 H           1 K26       0.0525
     67 H30        -1.0406   24.1434  -11.6676 H           1 K26       0.2458
     68 H31        -2.6243   22.6592  -12.0989 H           1 K26       0.0525
     69 H32        -4.8315   21.8506  -11.5925 H           1 K26       0.0530
@<TRIPOS>BOND
     1     1     2  ar
     2     1     7  ar
     3     2     3  ar
     4     3     4   1
     5     3     5  ar
     6     5     6  ar
     7     6     7  ar
     8     7     8   1
     9     8     9   1
    10     9    10   1
    11     9    14   1
    12    10    11  ar
    13    10    12  ar
    14    10    13  ar
    15    14    15  am
    16    15    16   2
    17    15    17   1
    18    17    18   1
    19    17    30   1
    20    18    19  am
    21    19    20   2
    22    19    21   1
    23    21    22   1
    24    21    26   1
    25    22    23   1
    26    22    24   1
    27    24    25   1
    28    26    27  am
    29    27    28   1
    30    27    29   2
    31    30    31   1
    32    31    32  ar
    33    31    37  ar
    34    32    33  ar
    35    33    34  ar
    36    34    35   1
    37    34    36  ar
    38    36    37  ar
    39     1    38   1
    40     2    39   1
    41     4    40   1
    42     5    41   1
    43     6    42   1
    44     8    43   1
    45     8    44   1
    46     9    45   1
    47    14    46   1
    48    17    47   1
    49    18    48   1
    50    21    49   1
    51    22    50   1
    52    23    51   1
    53    23    52   1
    54    23    53   1
    55    24    54   1
    56    24    55   1
    57    25    56   1
    58    25    57   1
    59    25    58   1
    60    26    59   1
    61    28    60   1
    62    28    61   1
    63    28    62   1
    64    30    63   1
    65    30    64   1
    66    32    65   1
    67    33    66   1
    68    35    67   1
    69    36    68   1
    70    37    69   1
@<TRIPOS>SUBSTRUCTURE
     1  K26      1

