@<TRIPOS>MOLECULE
2xhm_ligand_056
    69    70
SMALL
GAST_HUCK
****
This file was generated by PARSER (from files_GN.cpp)

@<TRIPOS>ATOM
      1 CAR        -8.3055   23.0968  -17.9517 C.ar        1 K26      -0.0686
      2 CAN        -8.3778   24.0317  -19.0092 C.ar        1 K26      -0.0398
      3 CBD        -9.4655   24.9162  -19.1003 C.ar        1 K26       0.0805
      4 OAI        -9.5668   25.8105  -20.1208 O.3         1 K26      -0.3376
      5 CAO       -10.4777   24.8644  -18.1209 C.ar        1 K26      -0.0398
      6 CAS       -10.3958   23.9545  -17.0554 C.ar        1 K26      -0.0686
      7 CBF        -9.3050   23.0514  -16.9531 C.ar        1 K26      -0.0501
      8 CAV        -9.2363   22.0528  -15.8437 C.3         1 K26       0.0145
      9 CBI        -8.2987   22.3948  -14.6364 C.3         1 K26       0.1207
     10 PBK        -6.6604   22.5666  -15.0085 P.3         1 K26       0.0863
     11 OAJ        -6.1378   23.8679  -14.6608 O.co2       1 K26      -0.5606
     12 OAK        -5.8394   21.5995  -14.3150 O.co2       1 K26      -0.5606
     13 OAG        -6.3292   22.3782  -16.4048 O.co2       1 K26      -0.5606
     14 NAY        -8.8410   23.5263  -13.9311 N.am        1 K26      -0.2653
     15 C          -8.4478   24.0380  -12.7649 C.2         1 K26       0.2049
     16 O          -7.4828   23.5700  -12.1791 O.2         1 K26      -0.3943
     17 CA         -9.2138   25.1148  -12.1309 C.3         1 K26       0.1389
     18 N         -10.2865   24.7196  -11.2525 N.am        1 K26      -0.2621
     19 CBB       -10.6211   23.5388  -10.7379 C.2         1 K26       0.2043
     20 OAF        -9.9491   22.5322  -10.9468 O.2         1 K26      -0.3944
     21 CBJ       -11.8485   23.3672   -9.9520 C.3         1 K26       0.1334
     22 CBG       -12.8223   22.2737  -10.5432 C.3         1 K26      -0.0037
     23 CAC       -14.3037   22.4662  -10.1074 C.3         1 K26      -0.0582
     24 CAT       -12.7228   22.0020  -12.0794 C.3         1 K26      -0.0491
     25 CAA       -12.9075   23.2216  -13.0146 C.3         1 K26      -0.0648
     26 NAX       -12.5098   24.6235   -9.7112 N.am        1 K26      -0.2656
     27 CAZ       -12.0784   25.5877   -8.9008 C.2         1 K26       0.1751
     28 CAB       -12.7874   26.8428   -8.8506 C.3         1 K26       0.0258
     29 OAD       -11.0709   25.4522   -8.2103 O.2         1 K26      -0.3972
     30 CB         -8.3491   26.2471  -11.4760 C.3         1 K26       0.0163
     31 CG         -8.1180   26.1381  -10.0016 C.ar        1 K26      -0.0493
     32 CD1        -8.7982   26.9907   -9.0980 C.ar        1 K26      -0.0685
     33 CE1        -8.5791   26.9001   -7.7108 C.ar        1 K26      -0.0398
     34 CZ         -7.6675   25.9564   -7.1997 C.ar        1 K26       0.0805
     35 OH         -7.4318   25.8392   -5.8700 O.3         1 K26      -0.3376
     36 CE2        -6.9754   25.1139   -8.0846 C.ar        1 K26      -0.0398
     37 CD2        -7.1955   25.2035   -9.4718 C.ar        1 K26      -0.0685
     38 H1         -7.5216   22.4421  -17.9228 H           1 K26       0.0530
     39 H2         -7.6382   24.0524  -19.7123 H           1 K26       0.0525
     40 H3         -8.6453   25.9991  -20.3982 H           1 K26       0.2458
     41 H4        -11.2716   25.4986  -18.1861 H           1 K26       0.0525
     42 H5        -11.1437   23.9406  -16.3592 H           1 K26       0.0530
     43 H6         -8.9458   21.0815  -16.2542 H           1 K26       0.0442
     44 H7        -10.2493   21.9070  -15.4592 H           1 K26       0.0442
     45 H8         -8.3748   21.5326  -13.9695 H           1 K26       0.0771
     46 H9         -9.6327   23.9300  -14.3180 H           1 K26       0.1870
     47 H10        -9.7414   25.6063  -12.9562 H           1 K26       0.0821
     48 H11       -10.8713   25.4508  -11.0132 H           1 K26       0.1885
     49 H12       -11.5338   22.9764   -8.9778 H           1 K26       0.0803
     50 H13       -12.5157   21.3294  -10.0776 H           1 K26       0.0345
     51 H14       -14.8976   21.5836  -10.3604 H           1 K26       0.0235
     52 H15       -14.7534   23.3307  -10.6040 H           1 K26       0.0235
     53 H16       -14.3746   22.6230   -9.0311 H           1 K26       0.0235
     54 H17       -13.4742   21.2534  -12.3457 H           1 K26       0.0267
     55 H18       -11.7517   21.5485  -12.3057 H           1 K26       0.0267
     56 H19       -12.7740   22.9072  -14.0518 H           1 K26       0.0230
     57 H20       -12.1719   23.9919  -12.7959 H           1 K26       0.0230
     58 H21       -13.9052   23.6479  -12.9104 H           1 K26       0.0230
     59 H22       -13.3018   24.8152  -10.2351 H           1 K26       0.1883
     60 H23       -12.2681   27.5757   -8.2256 H           1 K26       0.0467
     61 H24       -13.7839   26.6887   -8.4364 H           1 K26       0.0467
     62 H25       -12.8769   27.2604   -9.8547 H           1 K26       0.0467
     63 H26        -8.8524   27.1972  -11.6795 H           1 K26       0.0453
     64 H27        -7.3786   26.3188  -11.9788 H           1 K26       0.0453
     65 H28        -9.4721   27.6801   -9.4437 H           1 K26       0.0530
     66 H29        -9.0825   27.5212   -7.0783 H           1 K26       0.0525
     67 H30        -7.9317   26.5576   -5.4299 H           1 K26       0.2458
     68 H31        -6.2960   24.4396   -7.7234 H           1 K26       0.0525
     69 H32        -6.6581   24.5983  -10.0935 H           1 K26       0.0530
@<TRIPOS>BOND
     1     1     2  ar
     2     1     7  ar
     3     2     3  ar
     4     3     4   1
     5     3     5  ar
     6     5     6  ar
     7     6     7  ar
     8     7     8   1
     9     8     9   1
    10     9    10   1
    11     9    14   1
    12    10    11  ar
    13    10    12  ar
    14    10    13  ar
    15    14    15  am
    16    15    16   2
    17    15    17   1
    18    17    18   1
    19    17    30   1
    20    18    19  am
    21    19    20   2
    22    19    21   1
    23    21    22   1
    24    21    26   1
    25    22    23   1
    26    22    24   1
    27    24    25   1
    28    26    27  am
    29    27    28   1
    30    27    29   2
    31    30    31   1
    32    31    32  ar
    33    31    37  ar
    34    32    33  ar
    35    33    34  ar
    36    34    35   1
    37    34    36  ar
    38    36    37  ar
    39     1    38   1
    40     2    39   1
    41     4    40   1
    42     5    41   1
    43     6    42   1
    44     8    43   1
    45     8    44   1
    46     9    45   1
    47    14    46   1
    48    17    47   1
    49    18    48   1
    50    21    49   1
    51    22    50   1
    52    23    51   1
    53    23    52   1
    54    23    53   1
    55    24    54   1
    56    24    55   1
    57    25    56   1
    58    25    57   1
    59    25    58   1
    60    26    59   1
    61    28    60   1
    62    28    61   1
    63    28    62   1
    64    30    63   1
    65    30    64   1
    66    32    65   1
    67    33    66   1
    68    35    67   1
    69    36    68   1
    70    37    69   1
@<TRIPOS>SUBSTRUCTURE
     1  K26      1

