@<TRIPOS>MOLECULE
2xhm_ligand_019
    69    70
SMALL
GAST_HUCK
****
This file was generated by PARSER (from files_GN.cpp)

@<TRIPOS>ATOM
      1 CAR       -11.7278   22.3740  -10.9274 C.ar        1 K26      -0.0686
      2 CAN       -12.7624   21.5931  -11.4736 C.ar        1 K26      -0.0398
      3 CBD       -14.0994   21.8799  -11.1478 C.ar        1 K26       0.0805
      4 OAI       -15.0874   21.1534  -11.7108 O.3         1 K26      -0.3376
      5 CAO       -14.3994   22.9327  -10.2650 C.ar        1 K26      -0.0398
      6 CAS       -13.3636   23.7017   -9.7075 C.ar        1 K26      -0.0686
      7 CBF       -12.0129   23.4373  -10.0445 C.ar        1 K26      -0.0501
      8 CAV       -10.8993   24.2252   -9.4526 C.3         1 K26       0.0145
      9 CBI       -10.0537   25.0240  -10.5064 C.3         1 K26       0.1207
     10 PBK       -10.5552   26.5987  -10.7837 P.3         1 K26       0.0863
     11 OAJ       -10.7073   26.8414  -12.1989 O.co2       1 K26      -0.5606
     12 OAK       -11.8342   26.9296  -10.1975 O.co2       1 K26      -0.5606
     13 OAG        -9.6168   27.5893  -10.3192 O.co2       1 K26      -0.5606
     14 NAY        -8.7035   25.0319  -10.0402 N.am        1 K26      -0.2653
     15 C          -7.5903   24.8406  -10.7479 C.2         1 K26       0.2049
     16 O          -7.6418   24.8040  -11.9807 O.2         1 K26      -0.3943
     17 CA         -6.3050   24.6117  -10.1077 C.3         1 K26       0.1389
     18 N          -6.3073   24.8160   -8.6780 N.am        1 K26      -0.2621
     19 CBB        -6.4170   25.9734   -8.0371 C.2         1 K26       0.2043
     20 OAF        -6.5562   27.0156   -8.6672 O.2         1 K26      -0.3944
     21 CBJ        -6.3767   26.0505   -6.5683 C.3         1 K26       0.1334
     22 CBG        -4.9560   26.3897   -5.9538 C.3         1 K26      -0.0037
     23 CAC        -4.3942   25.3422   -4.9387 C.3         1 K26      -0.0582
     24 CAT        -3.8253   26.8494   -6.9448 C.3         1 K26      -0.0491
     25 CAA        -3.4248   25.8770   -8.0853 C.3         1 K26      -0.0648
     26 NAX        -6.9939   24.8875   -5.9684 N.am        1 K26      -0.2656
     27 CAZ        -8.1997   24.3754   -6.2404 C.2         1 K26       0.1751
     28 CAB        -8.5910   23.1450   -5.5896 C.3         1 K26       0.0258
     29 OAD        -8.9692   24.9204   -7.0193 O.2         1 K26      -0.3972
     30 CB         -5.7579   23.1665  -10.4185 C.3         1 K26       0.0163
     31 CG         -4.6443   23.1639  -11.4045 C.ar        1 K26      -0.0493
     32 CD1        -3.3970   23.7227  -11.0517 C.ar        1 K26      -0.0685
     33 CE1        -2.3307   23.7415  -11.9650 C.ar        1 K26      -0.0398
     34 CZ         -2.4943   23.1963  -13.2514 C.ar        1 K26       0.0805
     35 OH         -1.4737   23.2163  -14.1454 O.3         1 K26      -0.3376
     36 CE2        -3.7280   22.6349  -13.6167 C.ar        1 K26      -0.0398
     37 CD2        -4.7990   22.6142  -12.7019 C.ar        1 K26      -0.0685
     38 H1        -10.7608   22.1553  -11.1817 H           1 K26       0.0530
     39 H2        -12.5408   20.8213  -12.1037 H           1 K26       0.0525
     40 H3        -15.3044   20.4676  -11.0418 H           1 K26       0.2458
     41 H4        -15.3726   23.1418  -10.0289 H           1 K26       0.0525
     42 H5        -13.5981   24.4608   -9.0665 H           1 K26       0.0530
     43 H6        -10.2548   23.5119   -8.9278 H           1 K26       0.0442
     44 H7        -11.2695   24.9027   -8.6790 H           1 K26       0.0442
     45 H8        -10.1092   24.4980  -11.4662 H           1 K26       0.0771
     46 H9         -8.5917   25.0941   -9.0803 H           1 K26       0.1870
     47 H10        -5.6107   25.3482  -10.5289 H           1 K26       0.0821
     48 H11        -6.1435   24.0342   -8.1233 H           1 K26       0.1885
     49 H12        -7.0330   26.8848   -6.2776 H           1 K26       0.0803
     50 H13        -5.1170   27.2694   -5.3180 H           1 K26       0.0345
     51 H14        -3.4066   25.6232   -4.5685 H           1 K26       0.0235
     52 H15        -4.3238   24.3635   -5.4112 H           1 K26       0.0235
     53 H16        -5.0532   25.2647   -4.0695 H           1 K26       0.0235
     54 H17        -2.9143   27.0368   -6.3725 H           1 K26       0.0267
     55 H18        -4.1222   27.8043   -7.3905 H           1 K26       0.0267
     56 H19        -2.5370   26.2667   -8.6098 H           1 K26       0.0230
     57 H20        -4.2418   25.7920   -8.8082 H           1 K26       0.0230
     58 H21        -3.1799   24.8888   -7.6787 H           1 K26       0.0230
     59 H22        -6.4707   24.3836   -5.3276 H           1 K26       0.1883
     60 H23        -9.5880   22.8236   -5.9163 H           1 K26       0.0467
     61 H24        -8.6081   23.2934   -4.5074 H           1 K26       0.0467
     62 H25        -7.8760   22.3554   -5.8333 H           1 K26       0.0467
     63 H26        -6.5667   22.5112  -10.7628 H           1 K26       0.0453
     64 H27        -5.3888   22.7000   -9.5009 H           1 K26       0.0453
     65 H28        -3.2538   24.1138  -10.1134 H           1 K26       0.0530
     66 H29        -1.4378   24.1495  -11.6844 H           1 K26       0.0525
     67 H30        -0.6453   23.1582  -13.6199 H           1 K26       0.2458
     68 H31        -3.8549   22.2330  -14.5466 H           1 K26       0.0525
     69 H32        -5.6943   22.2131  -12.9868 H           1 K26       0.0530
@<TRIPOS>BOND
     1     1     2  ar
     2     1     7  ar
     3     2     3  ar
     4     3     4   1
     5     3     5  ar
     6     5     6  ar
     7     6     7  ar
     8     7     8   1
     9     8     9   1
    10     9    10   1
    11     9    14   1
    12    10    11  ar
    13    10    12  ar
    14    10    13  ar
    15    14    15  am
    16    15    16   2
    17    15    17   1
    18    17    18   1
    19    17    30   1
    20    18    19  am
    21    19    20   2
    22    19    21   1
    23    21    22   1
    24    21    26   1
    25    22    23   1
    26    22    24   1
    27    24    25   1
    28    26    27  am
    29    27    28   1
    30    27    29   2
    31    30    31   1
    32    31    32  ar
    33    31    37  ar
    34    32    33  ar
    35    33    34  ar
    36    34    35   1
    37    34    36  ar
    38    36    37  ar
    39     1    38   1
    40     2    39   1
    41     4    40   1
    42     5    41   1
    43     6    42   1
    44     8    43   1
    45     8    44   1
    46     9    45   1
    47    14    46   1
    48    17    47   1
    49    18    48   1
    50    21    49   1
    51    22    50   1
    52    23    51   1
    53    23    52   1
    54    23    53   1
    55    24    54   1
    56    24    55   1
    57    25    56   1
    58    25    57   1
    59    25    58   1
    60    26    59   1
    61    28    60   1
    62    28    61   1
    63    28    62   1
    64    30    63   1
    65    30    64   1
    66    32    65   1
    67    33    66   1
    68    35    67   1
    69    36    68   1
    70    37    69   1
@<TRIPOS>SUBSTRUCTURE
     1  K26      1

