@<TRIPOS>MOLECULE
2xhm_ligand_021
    69    70
SMALL
GAST_HUCK
****
This file was generated by PARSER (from files_GN.cpp)

@<TRIPOS>ATOM
      1 CAR        -8.1422   25.3792   -6.1143 C.ar        1 K26      -0.0686
      2 CAN        -7.7728   24.1694   -5.5009 C.ar        1 K26      -0.0398
      3 CBD        -6.5815   24.0923   -4.7577 C.ar        1 K26       0.0805
      4 OAI        -6.2469   22.9137   -4.1803 O.3         1 K26      -0.3376
      5 CAO        -5.7727   25.2390   -4.6140 C.ar        1 K26      -0.0398
      6 CAS        -6.1464   26.4483   -5.2288 C.ar        1 K26      -0.0686
      7 CBF        -7.3318   26.5335   -6.0010 C.ar        1 K26      -0.0501
      8 CAV        -7.7436   27.8159   -6.6344 C.3         1 K26       0.0145
      9 CBI        -7.6689   27.9130   -8.1946 C.3         1 K26       0.1207
     10 PBK        -6.1323   27.7776   -8.8445 P.3         1 K26       0.0863
     11 OAJ        -5.4875   26.5215   -8.5477 O.co2       1 K26      -0.5606
     12 OAK        -6.1865   27.8681  -10.2871 O.co2       1 K26      -0.5606
     13 OAG        -5.2430   28.8210   -8.3887 O.co2       1 K26      -0.5606
     14 NAY        -8.6830   27.1568   -8.8861 N.am        1 K26      -0.2653
     15 C          -8.7172   25.8618   -9.1859 C.2         1 K26       0.2049
     16 O          -7.7981   25.1141   -8.8788 O.2         1 K26      -0.3943
     17 CA         -9.8431   25.2969   -9.9298 C.3         1 K26       0.1389
     18 N          -9.4114   24.7022  -11.1661 N.am        1 K26      -0.2621
     19 CBB        -8.5482   23.7090  -11.3571 C.2         1 K26       0.2043
     20 OAF        -8.0021   23.1878  -10.3946 O.2         1 K26      -0.3944
     21 CBJ        -8.3095   23.1071  -12.6771 C.3         1 K26       0.1334
     22 CBG        -6.8078   23.0482  -13.1667 C.3         1 K26      -0.0037
     23 CAC        -5.7685   22.7799  -12.0375 C.3         1 K26      -0.0582
     24 CAT        -6.6441   21.9905  -14.3199 C.3         1 K26      -0.0491
     25 CAA        -5.4822   22.2447  -15.3133 C.3         1 K26      -0.0648
     26 NAX        -9.0808   23.7870  -13.6909 N.am        1 K26      -0.2656
     27 CAZ       -10.2003   23.3868  -14.2781 C.2         1 K26       0.1751
     28 CAB       -10.8327   24.2701  -15.2331 C.3         1 K26       0.0258
     29 OAD       -10.7240   22.3103  -14.0187 O.2         1 K26      -0.3972
     30 CB        -10.7400   24.3803   -9.0311 C.3         1 K26       0.0163
     31 CG        -11.7724   23.5978   -9.7709 C.ar        1 K26      -0.0493
     32 CD1       -13.1510   23.9166   -9.6908 C.ar        1 K26      -0.0685
     33 CE1       -14.1159   23.1384  -10.3663 C.ar        1 K26      -0.0398
     34 CZ        -13.7136   22.0259  -11.1369 C.ar        1 K26       0.0805
     35 OH        -14.6266   21.2638  -11.7857 O.3         1 K26      -0.3376
     36 CE2       -12.3462   21.7042  -11.2333 C.ar        1 K26      -0.0398
     37 CD2       -11.3904   22.4779  -10.5496 C.ar        1 K26      -0.0685
     38 H1         -9.0026   25.4096   -6.6609 H           1 K26       0.0530
     39 H2         -8.3694   23.3470   -5.6022 H           1 K26       0.0525
     40 H3         -5.2775   22.8156   -4.2970 H           1 K26       0.2458
     41 H4         -4.9068   25.1927   -4.0707 H           1 K26       0.0525
     42 H5         -5.5442   27.2690   -5.1132 H           1 K26       0.0530
     43 H6         -7.1515   28.6326   -6.2108 H           1 K26       0.0442
     44 H7         -8.7747   28.0314   -6.3319 H           1 K26       0.0442
     45 H8         -7.9472   28.9525   -8.4145 H           1 K26       0.0771
     46 H9         -9.4461   27.6772   -9.1895 H           1 K26       0.1870
     47 H10       -10.5017   26.1156  -10.2386 H           1 K26       0.0821
     48 H11        -9.8457   25.0499  -11.9630 H           1 K26       0.1885
     49 H12        -8.6634   22.0779  -12.5888 H           1 K26       0.0803
     50 H13        -6.5565   24.0327  -13.5828 H           1 K26       0.0345
     51 H14        -4.7503   22.7280  -12.4312 H           1 K26       0.0235
     52 H15        -5.9830   21.8388  -11.5284 H           1 K26       0.0235
     53 H16        -5.7878   23.5878  -11.3019 H           1 K26       0.0235
     54 H17        -7.5556   21.9564  -14.9214 H           1 K26       0.0267
     55 H18        -6.5132   20.9959  -13.8818 H           1 K26       0.0267
     56 H19        -5.4619   21.4493  -16.0593 H           1 K26       0.0230
     57 H20        -4.5189   22.2530  -14.8057 H           1 K26       0.0230
     58 H21        -5.6233   23.1986  -15.8240 H           1 K26       0.0230
     59 H22        -8.7652   24.6713  -13.9420 H           1 K26       0.1883
     60 H23       -11.7514   23.8415  -15.6327 H           1 K26       0.0467
     61 H24       -10.1509   24.4609  -16.0635 H           1 K26       0.0467
     62 H25       -11.0784   25.2193  -14.7530 H           1 K26       0.0467
     63 H26       -11.2331   25.0082   -8.2815 H           1 K26       0.0453
     64 H27       -10.1115   23.6885   -8.4653 H           1 K26       0.0453
     65 H28       -13.4657   24.7179   -9.1327 H           1 K26       0.0530
     66 H29       -15.1061   23.3786  -10.2912 H           1 K26       0.0525
     67 H30       -14.5925   20.3966  -11.3191 H           1 K26       0.2458
     68 H31       -12.0495   20.9036  -11.7896 H           1 K26       0.0525
     69 H32       -10.4104   22.2124  -10.6161 H           1 K26       0.0530
@<TRIPOS>BOND
     1     1     2  ar
     2     1     7  ar
     3     2     3  ar
     4     3     4   1
     5     3     5  ar
     6     5     6  ar
     7     6     7  ar
     8     7     8   1
     9     8     9   1
    10     9    10   1
    11     9    14   1
    12    10    11  ar
    13    10    12  ar
    14    10    13  ar
    15    14    15  am
    16    15    16   2
    17    15    17   1
    18    17    18   1
    19    17    30   1
    20    18    19  am
    21    19    20   2
    22    19    21   1
    23    21    22   1
    24    21    26   1
    25    22    23   1
    26    22    24   1
    27    24    25   1
    28    26    27  am
    29    27    28   1
    30    27    29   2
    31    30    31   1
    32    31    32  ar
    33    31    37  ar
    34    32    33  ar
    35    33    34  ar
    36    34    35   1
    37    34    36  ar
    38    36    37  ar
    39     1    38   1
    40     2    39   1
    41     4    40   1
    42     5    41   1
    43     6    42   1
    44     8    43   1
    45     8    44   1
    46     9    45   1
    47    14    46   1
    48    17    47   1
    49    18    48   1
    50    21    49   1
    51    22    50   1
    52    23    51   1
    53    23    52   1
    54    23    53   1
    55    24    54   1
    56    24    55   1
    57    25    56   1
    58    25    57   1
    59    25    58   1
    60    26    59   1
    61    28    60   1
    62    28    61   1
    63    28    62   1
    64    30    63   1
    65    30    64   1
    66    32    65   1
    67    33    66   1
    68    35    67   1
    69    36    68   1
    70    37    69   1
@<TRIPOS>SUBSTRUCTURE
     1  K26      1

