@<TRIPOS>MOLECULE
2xhm_ligand_049
    69    70
SMALL
GAST_HUCK
****
This file was generated by PARSER (from files_GN.cpp)

@<TRIPOS>ATOM
      1 CAR       -19.7493   21.0120   -7.8503 C.ar        1 K26      -0.0686
      2 CAN       -21.0118   20.3869   -7.8249 C.ar        1 K26      -0.0398
      3 CBD       -21.2763   19.2961   -8.6772 C.ar        1 K26       0.0805
      4 OAI       -22.4783   18.6675   -8.6555 O.3         1 K26      -0.3376
      5 CAO       -20.2807   18.8540   -9.5698 C.ar        1 K26      -0.0398
      6 CAS       -19.0125   19.4689   -9.5789 C.ar        1 K26      -0.0686
      7 CBF       -18.7286   20.5586   -8.7236 C.ar        1 K26      -0.0501
      8 CAV       -17.3751   21.1911   -8.7104 C.3         1 K26       0.0145
      9 CBI       -16.7256   21.5279  -10.0929 C.3         1 K26       0.1207
     10 PBK       -17.6744   22.4789  -11.0840 P.3         1 K26       0.0863
     11 OAJ       -16.9054   23.2437  -12.0280 O.co2       1 K26      -0.5606
     12 OAK       -18.5116   21.6213  -11.8973 O.co2       1 K26      -0.5606
     13 OAG       -18.5560   23.3959  -10.3913 O.co2       1 K26      -0.5606
     14 NAY       -15.4473   22.1443   -9.8466 N.am        1 K26      -0.2653
     15 C         -14.4629   22.3132  -10.7278 C.2         1 K26       0.2049
     16 O         -14.5931   21.8619  -11.8599 O.2         1 K26      -0.3943
     17 CA        -13.2068   22.9861  -10.3701 C.3         1 K26       0.1389
     18 N         -12.4880   23.3305  -11.5684 N.am        1 K26      -0.2621
     19 CBB       -11.3576   22.8310  -12.0499 C.2         1 K26       0.2043
     20 OAF       -10.6801   22.0389  -11.3988 O.2         1 K26      -0.3944
     21 CBJ       -10.8906   23.3381  -13.3353 C.3         1 K26       0.1334
     22 CBG        -9.9185   22.4265  -14.2016 C.3         1 K26      -0.0037
     23 CAC        -9.9466   20.9030  -13.8862 C.3         1 K26      -0.0582
     24 CAT       -10.0872   22.5986  -15.7649 C.3         1 K26      -0.0491
     25 CAA       -10.6739   23.9168  -16.3432 C.3         1 K26      -0.0648
     26 NAX       -10.2620   24.6127  -13.0845 N.am        1 K26      -0.2656
     27 CAZ       -10.8609   25.7758  -12.8550 C.2         1 K26       0.1751
     28 CAB       -10.0522   26.9038  -12.4572 C.3         1 K26       0.0258
     29 OAD       -12.0757   25.8879  -12.9411 O.2         1 K26      -0.3972
     30 CB        -13.3847   24.3100   -9.5527 C.3         1 K26       0.0163
     31 CG        -12.1257   24.8235   -8.9447 C.ar        1 K26      -0.0493
     32 CD1       -11.6468   26.1319   -9.2139 C.ar        1 K26      -0.0685
     33 CE1       -10.4880   26.6155   -8.5801 C.ar        1 K26      -0.0398
     34 CZ         -9.7905   25.8101   -7.6601 C.ar        1 K26       0.0805
     35 OH         -8.6835   26.2655   -7.0254 O.3         1 K26      -0.3376
     36 CE2       -10.2490   24.5070   -7.3921 C.ar        1 K26      -0.0398
     37 CD2       -11.4098   24.0229   -8.0196 C.ar        1 K26      -0.0685
     38 H1        -19.5815   21.8019   -7.2219 H           1 K26       0.0530
     39 H2        -21.7307   20.7197   -7.1791 H           1 K26       0.0525
     40 H3        -22.7410   18.5946   -7.7107 H           1 K26       0.2458
     41 H4        -20.4653   18.0657  -10.1923 H           1 K26       0.0525
     42 H5        -18.3003   19.1080  -10.2168 H           1 K26       0.0530
     43 H6        -16.7096   20.5000   -8.1792 H           1 K26       0.0442
     44 H7        -17.4031   22.1053   -8.1068 H           1 K26       0.0442
     45 H8        -16.5577   20.5791  -10.6043 H           1 K26       0.0771
     46 H9        -15.3147   22.5132   -8.9617 H           1 K26       0.1870
     47 H10       -12.6447   22.2649   -9.7673 H           1 K26       0.0821
     48 H11       -12.9153   24.0045  -12.1236 H           1 K26       0.1885
     49 H12       -11.7803   23.4770  -13.9570 H           1 K26       0.0803
     50 H13        -8.8900   22.7416  -13.9859 H           1 K26       0.0345
     51 H14        -9.3059   20.3469  -14.5747 H           1 K26       0.0235
     52 H15       -10.9496   20.5215  -13.9516 H           1 K26       0.0235
     53 H16        -9.5873   20.7308  -12.8687 H           1 K26       0.0235
     54 H17       -10.7207   21.7858  -16.1695 H           1 K26       0.0267
     55 H18        -9.0876   22.4743  -16.2345 H           1 K26       0.0267
     56 H19       -10.4979   23.9527  -17.4261 H           1 K26       0.0230
     57 H20       -10.1998   24.7925  -15.8755 H           1 K26       0.0230
     58 H21       -11.7602   23.9546  -16.1714 H           1 K26       0.0230
     59 H22        -9.2969   24.5987  -12.9721 H           1 K26       0.1883
     60 H23       -10.6639   27.7821  -12.2625 H           1 K26       0.0467
     61 H24        -9.3398   27.1427  -13.2422 H           1 K26       0.0467
     62 H25        -9.5006   26.6720  -11.5474 H           1 K26       0.0467
     63 H26       -14.0864   24.1611   -8.7338 H           1 K26       0.0453
     64 H27       -13.8358   25.0655  -10.2093 H           1 K26       0.0453
     65 H28       -12.1402   26.7349   -9.8764 H           1 K26       0.0530
     66 H29       -10.1624   27.5611   -8.7831 H           1 K26       0.0525
     67 H30        -8.6497   27.2323   -7.1798 H           1 K26       0.2458
     68 H31        -9.7511   23.9141   -6.7275 H           1 K26       0.0525
     69 H32       -11.7344   23.0788   -7.7951 H           1 K26       0.0530
@<TRIPOS>BOND
     1     1     2  ar
     2     1     7  ar
     3     2     3  ar
     4     3     4   1
     5     3     5  ar
     6     5     6  ar
     7     6     7  ar
     8     7     8   1
     9     8     9   1
    10     9    10   1
    11     9    14   1
    12    10    11  ar
    13    10    12  ar
    14    10    13  ar
    15    14    15  am
    16    15    16   2
    17    15    17   1
    18    17    18   1
    19    17    30   1
    20    18    19  am
    21    19    20   2
    22    19    21   1
    23    21    22   1
    24    21    26   1
    25    22    23   1
    26    22    24   1
    27    24    25   1
    28    26    27  am
    29    27    28   1
    30    27    29   2
    31    30    31   1
    32    31    32  ar
    33    31    37  ar
    34    32    33  ar
    35    33    34  ar
    36    34    35   1
    37    34    36  ar
    38    36    37  ar
    39     1    38   1
    40     2    39   1
    41     4    40   1
    42     5    41   1
    43     6    42   1
    44     8    43   1
    45     8    44   1
    46     9    45   1
    47    14    46   1
    48    17    47   1
    49    18    48   1
    50    21    49   1
    51    22    50   1
    52    23    51   1
    53    23    52   1
    54    23    53   1
    55    24    54   1
    56    24    55   1
    57    25    56   1
    58    25    57   1
    59    25    58   1
    60    26    59   1
    61    28    60   1
    62    28    61   1
    63    28    62   1
    64    30    63   1
    65    30    64   1
    66    32    65   1
    67    33    66   1
    68    35    67   1
    69    36    68   1
    70    37    69   1
@<TRIPOS>SUBSTRUCTURE
     1  K26      1

