@<TRIPOS>MOLECULE
2xhm_ligand_009
    69    70
SMALL
GAST_HUCK
****
This file was generated by PARSER (from files_GN.cpp)

@<TRIPOS>ATOM
      1 CAR       -20.8181   22.8363  -13.0645 C.ar        1 K26      -0.0686
      2 CAN       -21.5224   21.7334  -13.5805 C.ar        1 K26      -0.0398
      3 CBD       -21.7159   20.5857  -12.7867 C.ar        1 K26       0.0805
      4 OAI       -22.4103   19.5257  -13.2628 O.3         1 K26      -0.3376
      5 CAO       -21.1878   20.5415  -11.4865 C.ar        1 K26      -0.0398
      6 CAS       -20.4837   21.6451  -10.9808 C.ar        1 K26      -0.0686
      7 CBF       -20.2817   22.8133  -11.7536 C.ar        1 K26      -0.0501
      8 CAV       -19.4836   23.9930  -11.2955 C.3         1 K26       0.0145
      9 CBI       -18.7414   24.0830   -9.9128 C.3         1 K26       0.1207
     10 PBK       -19.7568   24.2283   -8.5866 P.3         1 K26       0.0863
     11 OAJ       -20.0191   25.6182   -8.3018 O.co2       1 K26      -0.5606
     12 OAK       -21.0536   23.6143   -8.6965 O.co2       1 K26      -0.5606
     13 OAG       -19.1598   23.7182   -7.3784 O.co2       1 K26      -0.5606
     14 NAY       -17.6458   23.1917   -9.6174 N.am        1 K26      -0.2653
     15 C         -17.1696   22.1361  -10.2615 C.2         1 K26       0.2049
     16 O         -17.6606   21.7342  -11.3089 O.2         1 K26      -0.3943
     17 CA        -15.9929   21.4271   -9.7545 C.3         1 K26       0.1389
     18 N         -14.7895   22.2102   -9.8881 N.am        1 K26      -0.2621
     19 CBB       -14.3249   22.7690  -11.0020 C.2         1 K26       0.2043
     20 OAF       -14.9166   22.6060  -12.0601 O.2         1 K26      -0.3944
     21 CBJ       -13.0640   23.5086  -11.0281 C.3         1 K26       0.1334
     22 CBG       -11.8025   22.5695  -11.0117 C.3         1 K26      -0.0037
     23 CAC       -11.7849   21.6386  -12.2690 C.3         1 K26      -0.0582
     24 CAT       -10.4421   23.3469  -10.9454 C.3         1 K26      -0.0491
     25 CAA       -10.1564   24.1238   -9.6350 C.3         1 K26      -0.0648
     26 NAX       -13.0903   24.4354   -9.9274 N.am        1 K26      -0.2656
     27 CAZ       -13.2087   25.7546   -9.9941 C.2         1 K26       0.1751
     28 CAB       -13.2886   26.5047   -8.7638 C.3         1 K26       0.0258
     29 OAD       -13.2867   26.3492  -11.0621 O.2         1 K26      -0.3972
     30 CB        -16.1145   20.9324   -8.2708 C.3         1 K26       0.0163
     31 CG        -17.4581   20.4981   -7.7900 C.ar        1 K26      -0.0493
     32 CD1       -17.8169   20.6283   -6.4247 C.ar        1 K26      -0.0685
     33 CE1       -19.0702   20.1853   -5.9631 C.ar        1 K26      -0.0398
     34 CZ        -20.0010   19.6409   -6.8637 C.ar        1 K26       0.0805
     35 OH        -21.2036   19.2158   -6.4039 O.3         1 K26      -0.3376
     36 CE2       -19.6664   19.5298   -8.2255 C.ar        1 K26      -0.0398
     37 CD2       -18.3942   19.9205   -8.6799 C.ar        1 K26      -0.0685
     38 H1        -20.6951   23.6603  -13.6552 H           1 K26       0.0530
     39 H2        -21.8798   21.7609  -14.5372 H           1 K26       0.0525
     40 H3        -21.7926   19.1014  -13.8952 H           1 K26       0.2458
     41 H4        -21.3007   19.7014  -10.9138 H           1 K26       0.0525
     42 H5        -20.1004   21.5771  -10.0423 H           1 K26       0.0530
     43 H6        -20.1368   24.8653  -11.3770 H           1 K26       0.0442
     44 H7        -18.7008   24.1268  -12.0461 H           1 K26       0.0442
     45 H8        -18.2279   25.0447   -9.9545 H           1 K26       0.0771
     46 H9        -17.1359   23.4319   -8.8321 H           1 K26       0.1870
     47 H10       -15.8438   20.5331  -10.3691 H           1 K26       0.0821
     48 H11       -14.2420   22.2973   -9.0921 H           1 K26       0.1885
     49 H12       -13.0108   24.0630  -11.9725 H           1 K26       0.0803
     50 H13       -11.8565   21.9178  -10.1315 H           1 K26       0.0345
     51 H14       -10.8781   21.0346  -12.3073 H           1 K26       0.0235
     52 H15       -11.8380   22.2275  -13.1860 H           1 K26       0.0235
     53 H16       -12.6291   20.9489  -12.2491 H           1 K26       0.0235
     54 H17       -10.3797   24.0444  -11.7850 H           1 K26       0.0267
     55 H18        -9.6206   22.6326  -11.0537 H           1 K26       0.0267
     56 H19        -9.0867   24.3248   -9.5470 H           1 K26       0.0230
     57 H20       -10.4726   23.5488   -8.7623 H           1 K26       0.0230
     58 H21       -10.6663   25.0861   -9.6320 H           1 K26       0.0230
     59 H22       -13.0590   24.0522   -9.0346 H           1 K26       0.1883
     60 H23       -13.3936   27.5764   -8.9515 H           1 K26       0.0467
     61 H24       -12.3805   26.3473   -8.1791 H           1 K26       0.0467
     62 H25       -14.1495   26.1668   -8.1826 H           1 K26       0.0467
     63 H26       -15.7346   21.7147   -7.6071 H           1 K26       0.0453
     64 H27       -15.4499   20.0806   -8.1423 H           1 K26       0.0453
     65 H28       -17.1570   21.0261   -5.7496 H           1 K26       0.0530
     66 H29       -19.3007   20.2620   -4.9695 H           1 K26       0.0525
     67 H30       -21.3036   18.3011   -6.7495 H           1 K26       0.2458
     68 H31       -20.3417   19.1475   -8.8866 H           1 K26       0.0525
     69 H32       -18.1614   19.8015   -9.6696 H           1 K26       0.0530
@<TRIPOS>BOND
     1     1     2  ar
     2     1     7  ar
     3     2     3  ar
     4     3     4   1
     5     3     5  ar
     6     5     6  ar
     7     6     7  ar
     8     7     8   1
     9     8     9   1
    10     9    10   1
    11     9    14   1
    12    10    11  ar
    13    10    12  ar
    14    10    13  ar
    15    14    15  am
    16    15    16   2
    17    15    17   1
    18    17    18   1
    19    17    30   1
    20    18    19  am
    21    19    20   2
    22    19    21   1
    23    21    22   1
    24    21    26   1
    25    22    23   1
    26    22    24   1
    27    24    25   1
    28    26    27  am
    29    27    28   1
    30    27    29   2
    31    30    31   1
    32    31    32  ar
    33    31    37  ar
    34    32    33  ar
    35    33    34  ar
    36    34    35   1
    37    34    36  ar
    38    36    37  ar
    39     1    38   1
    40     2    39   1
    41     4    40   1
    42     5    41   1
    43     6    42   1
    44     8    43   1
    45     8    44   1
    46     9    45   1
    47    14    46   1
    48    17    47   1
    49    18    48   1
    50    21    49   1
    51    22    50   1
    52    23    51   1
    53    23    52   1
    54    23    53   1
    55    24    54   1
    56    24    55   1
    57    25    56   1
    58    25    57   1
    59    25    58   1
    60    26    59   1
    61    28    60   1
    62    28    61   1
    63    28    62   1
    64    30    63   1
    65    30    64   1
    66    32    65   1
    67    33    66   1
    68    35    67   1
    69    36    68   1
    70    37    69   1
@<TRIPOS>SUBSTRUCTURE
     1  K26      1

