@<TRIPOS>MOLECULE
2xhm_ligand_017
    69    70
SMALL
GAST_HUCK
****
This file was generated by PARSER (from files_GN.cpp)

@<TRIPOS>ATOM
      1 CAR       -10.0487   23.4673   -6.2607 C.ar        1 K26      -0.0686
      2 CAN        -9.3408   23.1787   -5.0832 C.ar        1 K26      -0.0398
      3 CBD        -8.1825   23.9073   -4.7553 C.ar        1 K26       0.0805
      4 OAI        -7.4754   23.5638   -3.6547 O.3         1 K26      -0.3376
      5 CAO        -7.7499   24.9445   -5.6053 C.ar        1 K26      -0.0398
      6 CAS        -8.4517   25.2310   -6.7881 C.ar        1 K26      -0.0686
      7 CBF        -9.6121   24.4961   -7.1329 C.ar        1 K26      -0.0501
      8 CAV       -10.2594   24.6815   -8.4646 C.3         1 K26       0.0145
      9 CBI       -11.8399   24.6641   -8.4756 C.3         1 K26       0.1207
     10 PBK       -12.5011   26.1484   -8.8865 P.3         1 K26       0.0863
     11 OAJ       -11.7356   27.2657   -8.3753 O.co2       1 K26      -0.5606
     12 OAK       -12.6466   26.2966  -10.3195 O.co2       1 K26      -0.5606
     13 OAG       -13.8230   26.2864   -8.3114 O.co2       1 K26      -0.5606
     14 NAY       -12.2736   23.5764   -9.3288 N.am        1 K26      -0.2653
     15 C         -13.4724   23.3336   -9.8410 C.2         1 K26       0.2049
     16 O         -14.3639   24.1720   -9.7104 O.2         1 K26      -0.3943
     17 CA        -13.6778   22.0678  -10.5492 C.3         1 K26       0.1389
     18 N         -15.0024   21.5031  -10.3964 N.am        1 K26      -0.2621
     19 CBB       -16.1715   22.0048  -10.7961 C.2         1 K26       0.2043
     20 OAF       -16.1943   23.0505  -11.4260 O.2         1 K26      -0.3944
     21 CBJ       -17.4181   21.3062  -10.4133 C.3         1 K26       0.1334
     22 CBG       -18.7693   22.0809  -10.6973 C.3         1 K26      -0.0037
     23 CAC       -19.0236   22.2520  -12.2252 C.3         1 K26      -0.0582
     24 CAT       -20.0327   21.4337  -10.0253 C.3         1 K26      -0.0491
     25 CAA       -21.1715   22.4432   -9.7135 C.3         1 K26      -0.0648
     26 NAX       -17.2352   20.8617   -9.0564 N.am        1 K26      -0.2656
     27 CAZ       -17.5590   21.4922   -7.9311 C.2         1 K26       0.1751
     28 CAB       -17.0696   20.9699   -6.6799 C.3         1 K26       0.0258
     29 OAD       -18.2209   22.5217   -7.9386 O.2         1 K26      -0.3972
     30 CB        -13.2787   22.0946  -12.0562 C.3         1 K26       0.0163
     31 CG        -11.8745   22.4772  -12.3786 C.ar        1 K26      -0.0493
     32 CD1       -10.9542   21.5244  -12.8806 C.ar        1 K26      -0.0685
     33 CE1        -9.6821   21.9160  -13.3376 C.ar        1 K26      -0.0398
     34 CZ         -9.2913   23.2710  -13.2673 C.ar        1 K26       0.0805
     35 OH         -8.0713   23.6817  -13.7174 O.3         1 K26      -0.3376
     36 CE2       -10.1813   24.2196  -12.7257 C.ar        1 K26      -0.0398
     37 CD2       -11.4654   23.8288  -12.3047 C.ar        1 K26      -0.0685
     38 H1        -10.8749   22.9126   -6.4964 H           1 K26       0.0530
     39 H2         -9.6557   22.4145   -4.4810 H           1 K26       0.0525
     40 H3         -7.2340   24.4145   -3.2131 H           1 K26       0.2458
     41 H4         -6.8933   25.4583   -5.3854 H           1 K26       0.0525
     42 H5         -8.0918   25.9588   -7.4079 H           1 K26       0.0530
     43 H6         -9.8666   23.8659   -9.0863 H           1 K26       0.0442
     44 H7         -9.8804   25.5951   -8.9492 H           1 K26       0.0442
     45 H8        -12.1910   24.4400   -7.4614 H           1 K26       0.0771
     46 H9        -11.6056   22.8842   -9.4776 H           1 K26       0.1870
     47 H10       -13.0313   21.3289  -10.0613 H           1 K26       0.0821
     48 H11       -15.0380   20.6545   -9.9288 H           1 K26       0.1885
     49 H12       -17.4540   20.3886  -10.9979 H           1 K26       0.0803
     50 H13       -18.6475   23.0912  -10.2765 H           1 K26       0.0345
     51 H14       -19.8655   22.9194  -12.3990 H           1 K26       0.0235
     52 H15       -19.2447   21.2904  -12.6803 H           1 K26       0.0235
     53 H16       -18.1630   22.6784  -12.7408 H           1 K26       0.0235
     54 H17       -19.7639   20.9694   -9.0719 H           1 K26       0.0267
     55 H18       -20.4284   20.6385  -10.6685 H           1 K26       0.0267
     56 H19       -21.9914   21.9227   -9.2185 H           1 K26       0.0230
     57 H20       -21.5526   22.8974  -10.6305 H           1 K26       0.0230
     58 H21       -20.8029   23.2283   -9.0497 H           1 K26       0.0230
     59 H22       -16.7052   20.0517   -8.9556 H           1 K26       0.1883
     60 H23       -17.4992   21.4928   -5.8215 H           1 K26       0.0467
     61 H24       -15.9836   21.0934   -6.6510 H           1 K26       0.0467
     62 H25       -17.3057   19.9055   -6.5905 H           1 K26       0.0467
     63 H26       -13.9662   22.7458  -12.6006 H           1 K26       0.0453
     64 H27       -13.4355   21.0865  -12.4526 H           1 K26       0.0453
     65 H28       -11.2110   20.5389  -12.9471 H           1 K26       0.0530
     66 H29        -9.0413   21.2202  -13.7310 H           1 K26       0.0525
     67 H30        -7.9740   23.2845  -14.6101 H           1 K26       0.2458
     68 H31        -9.9029   25.2050  -12.6702 H           1 K26       0.0525
     69 H32       -12.1069   24.5434  -11.9661 H           1 K26       0.0530
@<TRIPOS>BOND
     1     1     2  ar
     2     1     7  ar
     3     2     3  ar
     4     3     4   1
     5     3     5  ar
     6     5     6  ar
     7     6     7  ar
     8     7     8   1
     9     8     9   1
    10     9    10   1
    11     9    14   1
    12    10    11  ar
    13    10    12  ar
    14    10    13  ar
    15    14    15  am
    16    15    16   2
    17    15    17   1
    18    17    18   1
    19    17    30   1
    20    18    19  am
    21    19    20   2
    22    19    21   1
    23    21    22   1
    24    21    26   1
    25    22    23   1
    26    22    24   1
    27    24    25   1
    28    26    27  am
    29    27    28   1
    30    27    29   2
    31    30    31   1
    32    31    32  ar
    33    31    37  ar
    34    32    33  ar
    35    33    34  ar
    36    34    35   1
    37    34    36  ar
    38    36    37  ar
    39     1    38   1
    40     2    39   1
    41     4    40   1
    42     5    41   1
    43     6    42   1
    44     8    43   1
    45     8    44   1
    46     9    45   1
    47    14    46   1
    48    17    47   1
    49    18    48   1
    50    21    49   1
    51    22    50   1
    52    23    51   1
    53    23    52   1
    54    23    53   1
    55    24    54   1
    56    24    55   1
    57    25    56   1
    58    25    57   1
    59    25    58   1
    60    26    59   1
    61    28    60   1
    62    28    61   1
    63    28    62   1
    64    30    63   1
    65    30    64   1
    66    32    65   1
    67    33    66   1
    68    35    67   1
    69    36    68   1
    70    37    69   1
@<TRIPOS>SUBSTRUCTURE
     1  K26      1

