@<TRIPOS>MOLECULE
2xhm_ligand_032
    69    70
SMALL
GAST_HUCK
****
This file was generated by PARSER (from files_GN.cpp)

@<TRIPOS>ATOM
      1 CAR        -9.7318   22.8218  -16.6943 C.ar        1 K26      -0.0686
      2 CAN        -9.2284   23.6403  -17.7190 C.ar        1 K26      -0.0398
      3 CBD        -9.5023   25.0216  -17.7206 C.ar        1 K26       0.0805
      4 OAI        -9.0219   25.8388  -18.6900 O.3         1 K26      -0.3376
      5 CAO       -10.2941   25.5716  -16.6902 C.ar        1 K26      -0.0398
      6 CAS       -10.8065   24.7458  -15.6696 C.ar        1 K26      -0.0686
      7 CBF       -10.5222   23.3600  -15.6487 C.ar        1 K26      -0.0501
      8 CAV       -11.0546   22.4867  -14.5543 C.3         1 K26       0.0145
      9 CBI       -10.5646   22.7177  -13.0804 C.3         1 K26       0.1207
     10 PBK        -8.9852   23.2307  -12.8944 P.3         1 K26       0.0863
     11 OAJ        -8.5319   22.9967  -11.5454 O.co2       1 K26      -0.5606
     12 OAK        -8.0962   22.5034  -13.7656 O.co2       1 K26      -0.5606
     13 OAG        -8.8260   24.6385  -13.1666 O.co2       1 K26      -0.5606
     14 NAY       -11.4580   23.6134  -12.3862 N.am        1 K26      -0.2653
     15 C         -12.3648   23.2920  -11.4712 C.2         1 K26       0.2049
     16 O         -12.4489   22.1447  -11.0431 O.2         1 K26      -0.3943
     17 CA        -13.2866   24.3147  -10.9670 C.3         1 K26       0.1389
     18 N         -14.4001   23.7858  -10.1967 N.am        1 K26      -0.2621
     19 CBB       -15.3119   22.9150  -10.6351 C.2         1 K26       0.2043
     20 OAF       -15.2201   22.4948  -11.7832 O.2         1 K26      -0.3944
     21 CBJ       -16.4161   22.4824   -9.7644 C.3         1 K26       0.1334
     22 CBG       -17.2266   21.2285  -10.3129 C.3         1 K26      -0.0037
     23 CAC       -17.6273   20.2182   -9.1948 C.3         1 K26      -0.0582
     24 CAT       -18.4942   21.5208  -11.1909 C.3         1 K26      -0.0491
     25 CAA       -18.4547   22.7412  -12.1430 C.3         1 K26      -0.0648
     26 NAX       -17.2041   23.6558   -9.4951 N.am        1 K26      -0.2656
     27 CAZ       -18.4295   23.7312   -8.9660 C.2         1 K26       0.1751
     28 CAB       -19.1072   25.0026   -8.9290 C.3         1 K26       0.0258
     29 OAD       -19.0294   22.7122   -8.5922 O.2         1 K26      -0.3972
     30 CB        -12.5502   25.4439  -10.1816 C.3         1 K26       0.0163
     31 CG        -11.7929   24.9538   -8.9962 C.ar        1 K26      -0.0493
     32 CD1       -12.4005   24.9097   -7.7222 C.ar        1 K26      -0.0685
     33 CE1       -11.7304   24.3357   -6.6260 C.ar        1 K26      -0.0398
     34 CZ        -10.4367   23.8054   -6.7887 C.ar        1 K26       0.0805
     35 OH         -9.8050   23.2011   -5.7510 O.3         1 K26      -0.3376
     36 CE2        -9.8042   23.8869   -8.0407 C.ar        1 K26      -0.0398
     37 CD2       -10.4762   24.4563   -9.1363 C.ar        1 K26      -0.0685
     38 H1         -9.5155   21.8217  -16.7154 H           1 K26       0.0530
     39 H2         -8.6600   23.2295  -18.4628 H           1 K26       0.0525
     40 H3         -8.2502   25.3837  -19.0938 H           1 K26       0.2458
     41 H4        -10.4974   26.5706  -16.6843 H           1 K26       0.0525
     42 H5        -11.3826   25.1659  -14.9363 H           1 K26       0.0530
     43 H6        -10.8313   21.4430  -14.8080 H           1 K26       0.0442
     44 H7        -12.1445   22.5613  -14.5823 H           1 K26       0.0442
     45 H8        -10.5928   21.7325  -12.6042 H           1 K26       0.0771
     46 H9        -11.4266   24.5445  -12.6544 H           1 K26       0.1870
     47 H10       -13.7344   24.7990  -11.8404 H           1 K26       0.0821
     48 H11       -14.5210   24.1060   -9.2859 H           1 K26       0.1885
     49 H12       -15.9414   22.1840   -8.8292 H           1 K26       0.0803
     50 H13       -16.5480   20.6435  -10.9455 H           1 K26       0.0345
     51 H14       -17.9503   19.2693   -9.6395 H           1 K26       0.0235
     52 H15       -18.4559   20.6068   -8.5867 H           1 K26       0.0235
     53 H16       -16.7820   20.0043   -8.5335 H           1 K26       0.0235
     54 H17       -19.3695   21.6464  -10.5438 H           1 K26       0.0267
     55 H18       -18.6878   20.6400  -11.8178 H           1 K26       0.0267
     56 H19       -19.3182   22.7182  -12.8129 H           1 K26       0.0230
     57 H20       -17.5481   22.7397  -12.7531 H           1 K26       0.0230
     58 H21       -18.4971   23.6701  -11.5711 H           1 K26       0.0230
     59 H22       -16.8233   24.5128   -9.7671 H           1 K26       0.1883
     60 H23       -20.1913   24.8733   -8.8297 H           1 K26       0.0467
     61 H24       -18.9173   25.5745   -9.8460 H           1 K26       0.0467
     62 H25       -18.7463   25.5666   -8.0688 H           1 K26       0.0467
     63 H26       -13.2814   26.1937   -9.8657 H           1 K26       0.0453
     64 H27       -11.8698   25.9619  -10.8641 H           1 K26       0.0453
     65 H28       -13.3431   25.2810   -7.5892 H           1 K26       0.0530
     66 H29       -12.1907   24.2963   -5.7141 H           1 K26       0.0525
     67 H30       -10.4371   22.5324   -5.4068 H           1 K26       0.2458
     68 H31        -8.8628   23.5054   -8.1670 H           1 K26       0.0525
     69 H32       -10.0104   24.4812  -10.0476 H           1 K26       0.0530
@<TRIPOS>BOND
     1     1     2  ar
     2     1     7  ar
     3     2     3  ar
     4     3     4   1
     5     3     5  ar
     6     5     6  ar
     7     6     7  ar
     8     7     8   1
     9     8     9   1
    10     9    10   1
    11     9    14   1
    12    10    11  ar
    13    10    12  ar
    14    10    13  ar
    15    14    15  am
    16    15    16   2
    17    15    17   1
    18    17    18   1
    19    17    30   1
    20    18    19  am
    21    19    20   2
    22    19    21   1
    23    21    22   1
    24    21    26   1
    25    22    23   1
    26    22    24   1
    27    24    25   1
    28    26    27  am
    29    27    28   1
    30    27    29   2
    31    30    31   1
    32    31    32  ar
    33    31    37  ar
    34    32    33  ar
    35    33    34  ar
    36    34    35   1
    37    34    36  ar
    38    36    37  ar
    39     1    38   1
    40     2    39   1
    41     4    40   1
    42     5    41   1
    43     6    42   1
    44     8    43   1
    45     8    44   1
    46     9    45   1
    47    14    46   1
    48    17    47   1
    49    18    48   1
    50    21    49   1
    51    22    50   1
    52    23    51   1
    53    23    52   1
    54    23    53   1
    55    24    54   1
    56    24    55   1
    57    25    56   1
    58    25    57   1
    59    25    58   1
    60    26    59   1
    61    28    60   1
    62    28    61   1
    63    28    62   1
    64    30    63   1
    65    30    64   1
    66    32    65   1
    67    33    66   1
    68    35    67   1
    69    36    68   1
    70    37    69   1
@<TRIPOS>SUBSTRUCTURE
     1  K26      1

