@<TRIPOS>MOLECULE
2xhm_ligand_025
    69    70
SMALL
GAST_HUCK
****
This file was generated by PARSER (from files_GN.cpp)

@<TRIPOS>ATOM
      1 CAR       -10.7908   24.1593  -10.7594 C.ar        1 K26      -0.0686
      2 CAN       -10.0259   24.8726  -11.7047 C.ar        1 K26      -0.0398
      3 CBD       -10.5817   25.9801  -12.3766 C.ar        1 K26       0.0805
      4 OAI        -9.8844   26.6639  -13.3227 O.3         1 K26      -0.3376
      5 CAO       -11.9033   26.3694  -12.0865 C.ar        1 K26      -0.0398
      6 CAS       -12.6584   25.6634  -11.1345 C.ar        1 K26      -0.0686
      7 CBF       -12.1258   24.5307  -10.4745 C.ar        1 K26      -0.0501
      8 CAV       -12.9690   23.7481   -9.5213 C.3         1 K26       0.0145
      9 CBI       -14.0495   22.8440  -10.2025 C.3         1 K26       0.1207
     10 PBK       -13.4102   21.5336  -11.0245 P.3         1 K26       0.0863
     11 OAJ       -13.1866   20.4127  -10.1403 O.co2       1 K26      -0.5606
     12 OAK       -14.3225   21.1582  -12.0796 O.co2       1 K26      -0.5606
     13 OAG       -12.1534   21.8181  -11.6811 O.co2       1 K26      -0.5606
     14 NAY       -14.9787   22.3761   -9.2069 N.am        1 K26      -0.2653
     15 C         -16.2534   22.0449   -9.3832 C.2         1 K26       0.2049
     16 O         -16.7562   22.0945  -10.5005 O.2         1 K26      -0.3943
     17 CA        -17.0791   21.5825   -8.2699 C.3         1 K26       0.1389
     18 N         -18.2751   22.3889   -8.2218 N.am        1 K26      -0.2621
     19 CBB       -19.0260   22.6673   -7.1523 C.2         1 K26       0.2043
     20 OAF       -18.7116   22.2174   -6.0547 O.2         1 K26      -0.3944
     21 CBJ       -20.1560   23.6081   -7.2042 C.3         1 K26       0.1334
     22 CBG       -21.4863   23.1951   -6.4573 C.3         1 K26      -0.0037
     23 CAC       -22.4450   22.3259   -7.3331 C.3         1 K26      -0.0582
     24 CAT       -21.2524   22.5420   -5.0493 C.3         1 K26      -0.0491
     25 CAA       -22.4589   22.5790   -4.0791 C.3         1 K26      -0.0648
     26 NAX       -20.4704   23.9277   -8.5785 N.am        1 K26      -0.2656
     27 CAZ       -20.2860   25.0574   -9.2453 C.2         1 K26       0.1751
     28 CAB       -20.6107   25.0739  -10.6570 C.3         1 K26       0.0258
     29 OAD       -19.8430   26.0596   -8.6991 O.2         1 K26      -0.3972
     30 CB        -17.4580   20.0732   -8.4007 C.3         1 K26       0.0163
     31 CG        -18.5644   19.6632   -7.4895 C.ar        1 K26      -0.0493
     32 CD1       -19.8983   19.6042   -7.9615 C.ar        1 K26      -0.0685
     33 CE1       -20.9536   19.2754   -7.0936 C.ar        1 K26      -0.0398
     34 CZ        -20.6873   18.9715   -5.7440 C.ar        1 K26       0.0805
     35 OH        -21.6903   18.6183   -4.8973 O.3         1 K26      -0.3376
     36 CE2       -19.3622   19.0076   -5.2683 C.ar        1 K26      -0.0398
     37 CD2       -18.3078   19.3561   -6.1326 C.ar        1 K26      -0.0685
     38 H1        -10.3689   23.3478  -10.3035 H           1 K26       0.0530
     39 H2         -9.0655   24.5824  -11.9080 H           1 K26       0.0525
     40 H3         -8.9375   26.6076  -13.0511 H           1 K26       0.2458
     41 H4        -12.3179   27.1706  -12.5669 H           1 K26       0.0525
     42 H5        -13.6131   25.9738  -10.9395 H           1 K26       0.0530
     43 H6        -13.4701   24.4700   -8.8767 H           1 K26       0.0442
     44 H7        -12.3452   23.1332   -8.8643 H           1 K26       0.0442
     45 H8        -14.5974   23.4588  -10.9239 H           1 K26       0.0771
     46 H9        -14.6088   22.2221   -8.3295 H           1 K26       0.1870
     47 H10       -16.5090   21.6934   -7.3327 H           1 K26       0.0821
     48 H11       -18.5599   22.7788   -9.0635 H           1 K26       0.1885
     49 H12       -19.8014   24.5159   -6.7067 H           1 K26       0.0803
     50 H13       -22.0261   24.1334   -6.2686 H           1 K26       0.0345
     51 H14       -23.3287   21.9974   -6.7774 H           1 K26       0.0235
     52 H15       -21.9213   21.4418   -7.7053 H           1 K26       0.0235
     53 H16       -22.8077   22.9001   -8.1956 H           1 K26       0.0235
     54 H17       -20.4433   23.0855   -4.5487 H           1 K26       0.0267
     55 H18       -20.9511   21.4944   -5.1819 H           1 K26       0.0267
     56 H19       -22.1725   22.1318   -3.1215 H           1 K26       0.0230
     57 H20       -23.3068   22.0125   -4.4690 H           1 K26       0.0230
     58 H21       -22.7736   23.6097   -3.8919 H           1 K26       0.0230
     59 H22       -20.8085   23.1859   -9.1092 H           1 K26       0.1883
     60 H23       -20.3661   26.0322  -11.1188 H           1 K26       0.0467
     61 H24       -21.6787   24.8868  -10.7896 H           1 K26       0.0467
     62 H25       -20.0490   24.2933  -11.1738 H           1 K26       0.0467
     63 H26       -16.5775   19.4628   -8.1762 H           1 K26       0.0453
     64 H27       -17.7304   19.8644   -9.4390 H           1 K26       0.0453
     65 H28       -20.1146   19.8215   -8.9347 H           1 K26       0.0530
     66 H29       -21.9060   19.2432   -7.4537 H           1 K26       0.0525
     67 H30       -22.4537   18.3482   -5.4521 H           1 K26       0.2458
     68 H31       -19.1616   18.8012   -4.2872 H           1 K26       0.0525
     69 H32       -17.3550   19.4012   -5.7650 H           1 K26       0.0530
@<TRIPOS>BOND
     1     1     2  ar
     2     1     7  ar
     3     2     3  ar
     4     3     4   1
     5     3     5  ar
     6     5     6  ar
     7     6     7  ar
     8     7     8   1
     9     8     9   1
    10     9    10   1
    11     9    14   1
    12    10    11  ar
    13    10    12  ar
    14    10    13  ar
    15    14    15  am
    16    15    16   2
    17    15    17   1
    18    17    18   1
    19    17    30   1
    20    18    19  am
    21    19    20   2
    22    19    21   1
    23    21    22   1
    24    21    26   1
    25    22    23   1
    26    22    24   1
    27    24    25   1
    28    26    27  am
    29    27    28   1
    30    27    29   2
    31    30    31   1
    32    31    32  ar
    33    31    37  ar
    34    32    33  ar
    35    33    34  ar
    36    34    35   1
    37    34    36  ar
    38    36    37  ar
    39     1    38   1
    40     2    39   1
    41     4    40   1
    42     5    41   1
    43     6    42   1
    44     8    43   1
    45     8    44   1
    46     9    45   1
    47    14    46   1
    48    17    47   1
    49    18    48   1
    50    21    49   1
    51    22    50   1
    52    23    51   1
    53    23    52   1
    54    23    53   1
    55    24    54   1
    56    24    55   1
    57    25    56   1
    58    25    57   1
    59    25    58   1
    60    26    59   1
    61    28    60   1
    62    28    61   1
    63    28    62   1
    64    30    63   1
    65    30    64   1
    66    32    65   1
    67    33    66   1
    68    35    67   1
    69    36    68   1
    70    37    69   1
@<TRIPOS>SUBSTRUCTURE
     1  K26      1

