@<TRIPOS>MOLECULE
2xhm_ligand_050
    69    70
SMALL
GAST_HUCK
****
This file was generated by PARSER (from files_GN.cpp)

@<TRIPOS>ATOM
      1 CAR        -9.7999   25.3951  -16.2083 C.ar        1 K26      -0.0686
      2 CAN        -9.0141   25.1175  -17.3344 C.ar        1 K26      -0.0398
      3 CBD        -8.8066   23.7801  -17.7363 C.ar        1 K26       0.0805
      4 OAI        -8.0776   23.4993  -18.8481 O.3         1 K26      -0.3376
      5 CAO        -9.4097   22.7327  -17.0133 C.ar        1 K26      -0.0398
      6 CAS       -10.2068   23.0139  -15.8945 C.ar        1 K26      -0.0686
      7 CBF       -10.4177   24.3481  -15.4761 C.ar        1 K26      -0.0501
      8 CAV       -11.2980   24.6751  -14.3157 C.3         1 K26       0.0145
      9 CBI       -11.4700   23.6029  -13.1779 C.3         1 K26       0.1207
     10 PBK       -10.0313   23.0691  -12.5097 P.3         1 K26       0.0863
     11 OAJ        -9.0800   22.6372  -13.5011 O.co2       1 K26      -0.5606
     12 OAK        -9.3970   24.0710  -11.6875 O.co2       1 K26      -0.5606
     13 OAG       -10.2820   21.9159  -11.6803 O.co2       1 K26      -0.5606
     14 NAY       -12.3029   24.1925  -12.1592 N.am        1 K26      -0.2653
     15 C         -13.1276   23.5756  -11.3188 C.2         1 K26       0.2049
     16 O         -13.2847   22.3622  -11.3322 O.2         1 K26      -0.3943
     17 CA        -13.8835   24.3842  -10.3628 C.3         1 K26       0.1389
     18 N         -15.1481   23.8284   -9.9710 N.am        1 K26      -0.2621
     19 CBB       -15.9766   23.0439  -10.6448 C.2         1 K26       0.2043
     20 OAF       -15.6610   22.6207  -11.7531 O.2         1 K26      -0.3944
     21 CBJ       -17.1843   22.5404   -9.9920 C.3         1 K26       0.1334
     22 CBG       -17.1326   20.9789   -9.7774 C.3         1 K26      -0.0037
     23 CAC       -16.8226   20.6231   -8.2798 C.3         1 K26      -0.0582
     24 CAT       -18.3524   20.1416  -10.2980 C.3         1 K26      -0.0491
     25 CAA       -19.5967   20.0432   -9.3759 C.3         1 K26      -0.0648
     26 NAX       -18.3782   23.1114  -10.5585 N.am        1 K26      -0.2656
     27 CAZ       -18.8381   23.0927  -11.8000 C.2         1 K26       0.1751
     28 CAB       -20.1256   23.6840  -12.0572 C.3         1 K26       0.0258
     29 OAD       -18.2225   22.5620  -12.7139 O.2         1 K26      -0.3972
     30 CB        -13.0771   24.6296   -9.0425 C.3         1 K26       0.0163
     31 CG        -11.6902   25.1556   -9.1876 C.ar        1 K26      -0.0493
     32 CD1       -10.6018   24.4985   -8.5599 C.ar        1 K26      -0.0685
     33 CE1        -9.2897   24.9933   -8.6848 C.ar        1 K26      -0.0398
     34 CZ         -9.0467   26.1563   -9.4439 C.ar        1 K26       0.0805
     35 OH         -7.7851   26.6431   -9.5652 O.3         1 K26      -0.3376
     36 CE2       -10.1168   26.8078  -10.0849 C.ar        1 K26      -0.0398
     37 CD2       -11.4320   26.3164   -9.9494 C.ar        1 K26      -0.0685
     38 H1         -9.9407   26.3702  -15.9431 H           1 K26       0.0530
     39 H2         -8.5953   25.8765  -17.8689 H           1 K26       0.0525
     40 H3         -7.1569   23.3369  -18.5206 H           1 K26       0.2458
     41 H4         -9.2414   21.7627  -17.2768 H           1 K26       0.0525
     42 H5        -10.6677   22.2402  -15.4117 H           1 K26       0.0530
     43 H6        -12.2915   24.8678  -14.7366 H           1 K26       0.0442
     44 H7        -10.9771   25.6206  -13.8456 H           1 K26       0.0442
     45 H8        -11.9963   22.7455  -13.6097 H           1 K26       0.0771
     46 H9        -12.2548   25.1666  -12.0747 H           1 K26       0.1870
     47 H10       -14.0990   25.3637  -10.7919 H           1 K26       0.0821
     48 H11       -15.4386   24.0588   -9.0737 H           1 K26       0.1885
     49 H12       -17.2124   22.9746   -8.9779 H           1 K26       0.0803
     50 H13       -16.2996   20.5637  -10.3428 H           1 K26       0.0345
     51 H14       -16.7553   19.5422   -8.1171 H           1 K26       0.0235
     52 H15       -17.6088   21.0094   -7.6148 H           1 K26       0.0235
     53 H16       -15.8736   21.0735   -7.9733 H           1 K26       0.0235
     54 H17       -18.0191   19.1129  -10.5222 H           1 K26       0.0267
     55 H18       -18.6842   20.5658  -11.2533 H           1 K26       0.0267
     56 H19       -20.3865   19.4858   -9.8907 H           1 K26       0.0230
     57 H20       -19.9803   21.0344   -9.1399 H           1 K26       0.0230
     58 H21       -19.3549   19.5201   -8.4473 H           1 K26       0.0230
     59 H22       -18.9330   23.5837   -9.9224 H           1 K26       0.1883
     60 H23       -20.4141   23.5745  -13.1057 H           1 K26       0.0467
     61 H24       -20.1106   24.7513  -11.8120 H           1 K26       0.0467
     62 H25       -20.8826   23.1873  -11.4422 H           1 K26       0.0467
     63 H26       -13.0443   23.6829   -8.4868 H           1 K26       0.0453
     64 H27       -13.6221   25.3405   -8.4006 H           1 K26       0.0453
     65 H28       -10.7491   23.6480   -8.0120 H           1 K26       0.0530
     66 H29        -8.5163   24.5085   -8.2201 H           1 K26       0.0525
     67 H30        -7.3832   26.1054  -10.2912 H           1 K26       0.2458
     68 H31        -9.9357   27.6348  -10.6569 H           1 K26       0.0525
     69 H32       -12.1957   26.8148  -10.4151 H           1 K26       0.0530
@<TRIPOS>BOND
     1     1     2  ar
     2     1     7  ar
     3     2     3  ar
     4     3     4   1
     5     3     5  ar
     6     5     6  ar
     7     6     7  ar
     8     7     8   1
     9     8     9   1
    10     9    10   1
    11     9    14   1
    12    10    11  ar
    13    10    12  ar
    14    10    13  ar
    15    14    15  am
    16    15    16   2
    17    15    17   1
    18    17    18   1
    19    17    30   1
    20    18    19  am
    21    19    20   2
    22    19    21   1
    23    21    22   1
    24    21    26   1
    25    22    23   1
    26    22    24   1
    27    24    25   1
    28    26    27  am
    29    27    28   1
    30    27    29   2
    31    30    31   1
    32    31    32  ar
    33    31    37  ar
    34    32    33  ar
    35    33    34  ar
    36    34    35   1
    37    34    36  ar
    38    36    37  ar
    39     1    38   1
    40     2    39   1
    41     4    40   1
    42     5    41   1
    43     6    42   1
    44     8    43   1
    45     8    44   1
    46     9    45   1
    47    14    46   1
    48    17    47   1
    49    18    48   1
    50    21    49   1
    51    22    50   1
    52    23    51   1
    53    23    52   1
    54    23    53   1
    55    24    54   1
    56    24    55   1
    57    25    56   1
    58    25    57   1
    59    25    58   1
    60    26    59   1
    61    28    60   1
    62    28    61   1
    63    28    62   1
    64    30    63   1
    65    30    64   1
    66    32    65   1
    67    33    66   1
    68    35    67   1
    69    36    68   1
    70    37    69   1
@<TRIPOS>SUBSTRUCTURE
     1  K26      1

