@<TRIPOS>MOLECULE
2xhm_ligand_044
    69    70
SMALL
GAST_HUCK
****
This file was generated by PARSER (from files_GN.cpp)

@<TRIPOS>ATOM
      1 CAR        -8.4150   24.5159  -17.2314 C.ar        1 K26      -0.0686
      2 CAN        -9.7460   24.3878  -17.6694 C.ar        1 K26      -0.0398
      3 CBD       -10.8084   24.6446  -16.7778 C.ar        1 K26       0.0805
      4 OAI       -12.0940   24.4853  -17.1722 O.3         1 K26      -0.3376
      5 CAO       -10.5295   25.0639  -15.4638 C.ar        1 K26      -0.0398
      6 CAS        -9.1968   25.1935  -15.0286 C.ar        1 K26      -0.0686
      7 CBF        -8.1219   24.9151  -15.9050 C.ar        1 K26      -0.0501
      8 CAV        -6.7098   24.9744  -15.4309 C.3         1 K26       0.0145
      9 CBI        -6.2836   23.6625  -14.6844 C.3         1 K26       0.1207
     10 PBK        -4.6386   23.3967  -14.7104 P.3         1 K26       0.0863
     11 OAJ        -4.3379   22.0418  -14.3080 O.co2       1 K26      -0.5606
     12 OAK        -4.1249   23.5573  -16.0529 O.co2       1 K26      -0.5606
     13 OAG        -3.9194   24.3036  -13.8498 O.co2       1 K26      -0.5606
     14 NAY        -6.6894   23.7249  -13.3081 N.am        1 K26      -0.2653
     15 C          -7.7334   23.1472  -12.7199 C.2         1 K26       0.2049
     16 O          -8.5551   22.5197  -13.3925 O.2         1 K26      -0.3943
     17 CA         -7.9006   23.2940  -11.2789 C.3         1 K26       0.1389
     18 N          -9.2036   22.8960  -10.8179 N.am        1 K26      -0.2621
     19 CBB       -10.3587   23.4792  -11.1045 C.2         1 K26       0.2043
     20 OAF       -10.3820   24.4955  -11.7963 O.2         1 K26      -0.3944
     21 CBJ       -11.5953   22.9920  -10.4848 C.3         1 K26       0.1334
     22 CBG       -12.9636   23.5038  -11.0865 C.3         1 K26      -0.0037
     23 CAC       -13.0377   23.2723  -12.6199 C.3         1 K26      -0.0582
     24 CAT       -14.2341   22.9220  -10.3694 C.3         1 K26      -0.0491
     25 CAA       -14.4741   21.3972  -10.5011 C.3         1 K26      -0.0648
     26 NAX       -11.5978   23.1091   -9.0523 N.am        1 K26      -0.2656
     27 CAZ       -10.9543   23.9829   -8.2664 C.2         1 K26       0.1751
     28 CAB       -11.1104   23.8643   -6.8341 C.3         1 K26       0.0258
     29 OAD       -10.1876   24.8349   -8.7110 O.2         1 K26      -0.3972
     30 CB         -6.7841   22.5372  -10.4684 C.3         1 K26       0.0163
     31 CG         -5.9866   23.4494   -9.5973 C.ar        1 K26      -0.0493
     32 CD1        -4.6598   23.8005   -9.9345 C.ar        1 K26      -0.0685
     33 CE1        -3.9440   24.7306   -9.1595 C.ar        1 K26      -0.0398
     34 CZ         -4.5443   25.3233   -8.0289 C.ar        1 K26       0.0805
     35 OH         -3.8572   26.2433   -7.3126 O.3         1 K26      -0.3376
     36 CE2        -5.8599   24.9575   -7.6710 C.ar        1 K26      -0.0398
     37 CD2        -6.5735   24.0306   -8.4510 C.ar        1 K26      -0.0685
     38 H1         -7.6579   24.3080  -17.8886 H           1 K26       0.0530
     39 H2         -9.9393   24.0958  -18.6273 H           1 K26       0.0525
     40 H3        -12.2397   23.5145  -17.1766 H           1 K26       0.2458
     41 H4        -11.2951   25.2524  -14.8186 H           1 K26       0.0525
     42 H5         -9.0190   25.4850  -14.0646 H           1 K26       0.0530
     43 H6         -6.5785   25.8432  -14.7745 H           1 K26       0.0442
     44 H7         -6.0692   25.1567  -16.3006 H           1 K26       0.0442
     45 H8         -6.7374   22.8063  -15.1975 H           1 K26       0.0771
     46 H9         -6.1247   24.2748  -12.7308 H           1 K26       0.1870
     47 H10        -7.8175   24.3693  -11.0732 H           1 K26       0.0821
     48 H11        -9.2384   22.1465  -10.2115 H           1 K26       0.1885
     49 H12       -11.5891   21.9137  -10.6542 H           1 K26       0.0803
     50 H13       -12.9971   24.5844  -10.9176 H           1 K26       0.0345
     51 H14       -14.0070   23.5723  -13.0118 H           1 K26       0.0235
     52 H15       -12.8775   22.2204  -12.8556 H           1 K26       0.0235
     53 H16       -12.2800   23.8496  -13.1420 H           1 K26       0.0235
     54 H17       -15.1197   23.4264  -10.7621 H           1 K26       0.0267
     55 H18       -14.1998   23.1602   -9.3034 H           1 K26       0.0267
     56 H19       -15.3760   21.1153   -9.9479 H           1 K26       0.0230
     57 H20       -13.6337   20.8284  -10.0926 H           1 K26       0.0230
     58 H21       -14.6190   21.1104  -11.5482 H           1 K26       0.0230
     59 H22       -12.1762   22.4940   -8.5634 H           1 K26       0.1883
     60 H23       -10.3955   24.5022   -6.2929 H           1 K26       0.0467
     61 H24       -10.9384   22.8272   -6.5109 H           1 K26       0.0467
     62 H25       -12.1241   24.1628   -6.5344 H           1 K26       0.0467
     63 H26        -6.1135   21.9910  -11.1445 H           1 K26       0.0453
     64 H27        -7.2222   21.7606   -9.8315 H           1 K26       0.0453
     65 H28        -4.2143   23.4022  -10.7648 H           1 K26       0.0530
     66 H29        -2.9929   24.9860   -9.4250 H           1 K26       0.0525
     67 H30        -4.3550   27.0854   -7.4144 H           1 K26       0.2458
     68 H31        -6.2933   25.3746   -6.8470 H           1 K26       0.0525
     69 H32        -7.5330   23.7950   -8.1826 H           1 K26       0.0530
@<TRIPOS>BOND
     1     1     2  ar
     2     1     7  ar
     3     2     3  ar
     4     3     4   1
     5     3     5  ar
     6     5     6  ar
     7     6     7  ar
     8     7     8   1
     9     8     9   1
    10     9    10   1
    11     9    14   1
    12    10    11  ar
    13    10    12  ar
    14    10    13  ar
    15    14    15  am
    16    15    16   2
    17    15    17   1
    18    17    18   1
    19    17    30   1
    20    18    19  am
    21    19    20   2
    22    19    21   1
    23    21    22   1
    24    21    26   1
    25    22    23   1
    26    22    24   1
    27    24    25   1
    28    26    27  am
    29    27    28   1
    30    27    29   2
    31    30    31   1
    32    31    32  ar
    33    31    37  ar
    34    32    33  ar
    35    33    34  ar
    36    34    35   1
    37    34    36  ar
    38    36    37  ar
    39     1    38   1
    40     2    39   1
    41     4    40   1
    42     5    41   1
    43     6    42   1
    44     8    43   1
    45     8    44   1
    46     9    45   1
    47    14    46   1
    48    17    47   1
    49    18    48   1
    50    21    49   1
    51    22    50   1
    52    23    51   1
    53    23    52   1
    54    23    53   1
    55    24    54   1
    56    24    55   1
    57    25    56   1
    58    25    57   1
    59    25    58   1
    60    26    59   1
    61    28    60   1
    62    28    61   1
    63    28    62   1
    64    30    63   1
    65    30    64   1
    66    32    65   1
    67    33    66   1
    68    35    67   1
    69    36    68   1
    70    37    69   1
@<TRIPOS>SUBSTRUCTURE
     1  K26      1

