@<TRIPOS>MOLECULE
2xhm_ligand_045
    69    70
SMALL
GAST_HUCK
****
This file was generated by PARSER (from files_GN.cpp)

@<TRIPOS>ATOM
      1 CAR       -10.8720   22.4811  -11.5679 C.ar        1 K26      -0.0686
      2 CAN       -11.9876   21.7201  -11.9607 C.ar        1 K26      -0.0398
      3 CBD       -13.2692   22.0477  -11.4831 C.ar        1 K26       0.0805
      4 OAI       -14.3486   21.3521  -11.9181 O.3         1 K26      -0.3376
      5 CAO       -13.4241   23.1182  -10.5822 C.ar        1 K26      -0.0398
      6 CAS       -12.3014   23.8637  -10.1719 C.ar        1 K26      -0.0686
      7 CBF       -11.0112   23.5728  -10.6780 C.ar        1 K26      -0.0501
      8 CAV        -9.8113   24.3771  -10.2936 C.3         1 K26       0.0145
      9 CBI        -9.2303   25.2578  -11.4549 C.3         1 K26       0.1207
     10 PBK       -10.0878   26.6879  -11.6882 P.3         1 K26       0.0863
     11 OAJ       -10.0750   27.0873  -13.0698 O.co2       1 K26      -0.5606
     12 OAK       -11.4726   26.6287  -11.2942 O.co2       1 K26      -0.5606
     13 OAG        -9.4948   27.7666  -10.9435 O.co2       1 K26      -0.5606
     14 NAY        -7.8290   25.5182  -11.2133 N.am        1 K26      -0.2653
     15 C          -6.9393   26.0154  -12.0734 C.2         1 K26       0.2049
     16 O          -7.2806   26.3060  -13.2139 O.2         1 K26      -0.3943
     17 CA         -5.5403   26.2239  -11.7057 C.3         1 K26       0.1389
     18 N          -5.4519   26.8206  -10.4010 N.am        1 K26      -0.2621
     19 CBB        -5.1423   28.0758  -10.0949 C.2         1 K26       0.2043
     20 OAF        -4.9501   28.9089  -10.9733 O.2         1 K26      -0.3944
     21 CBJ        -5.1467   28.4920   -8.6948 C.3         1 K26       0.1334
     22 CBG        -6.5564   28.9907   -8.2121 C.3         1 K26      -0.0037
     23 CAC        -6.5205   29.4476   -6.7256 C.3         1 K26      -0.0582
     24 CAT        -7.3046   30.0308   -9.1159 C.3         1 K26      -0.0491
     25 CAA        -6.6621   31.4297   -9.2733 C.3         1 K26      -0.0648
     26 NAX        -4.0847   29.4338   -8.4354 N.am        1 K26      -0.2656
     27 CAZ        -2.8517   29.1484   -8.0314 C.2         1 K26       0.1751
     28 CAB        -1.9160   30.2266   -7.8169 C.3         1 K26       0.0258
     29 OAD        -2.4820   27.9952   -7.8473 O.2         1 K26      -0.3972
     30 CB         -4.7425   24.8845  -11.7178 C.3         1 K26       0.0163
     31 CG         -3.2716   25.0826  -11.5760 C.ar        1 K26      -0.0493
     32 CD1        -2.5966   24.7406  -10.3798 C.ar        1 K26      -0.0685
     33 CE1        -1.2083   24.9374  -10.2570 C.ar        1 K26      -0.0398
     34 CZ         -0.4725   25.4863  -11.3231 C.ar        1 K26       0.0805
     35 OH          0.8637   25.6775  -11.1845 O.3         1 K26      -0.3376
     36 CE2        -1.1306   25.8251  -12.5205 C.ar        1 K26      -0.0398
     37 CD2        -2.5177   25.6228  -12.6453 C.ar        1 K26      -0.0685
     38 H1         -9.9513   22.2314  -11.9380 H           1 K26       0.0530
     39 H2        -11.8638   20.9346  -12.6018 H           1 K26       0.0525
     40 H3        -14.2489   20.4540  -11.5316 H           1 K26       0.2458
     41 H4        -14.3525   23.3577  -10.2257 H           1 K26       0.0525
     42 H5        -12.4375   24.6377   -9.5174 H           1 K26       0.0530
     43 H6         -9.0488   23.6673   -9.9595 H           1 K26       0.0442
     44 H7        -10.0322   25.0065   -9.4253 H           1 K26       0.0442
     45 H8         -9.2918   24.6753  -12.3784 H           1 K26       0.0771
     46 H9         -7.4946   25.2879  -10.3315 H           1 K26       0.1870
     47 H10        -5.0842   26.8864  -12.4523 H           1 K26       0.0821
     48 H11        -5.6522   26.2319   -9.6555 H           1 K26       0.1885
     49 H12        -4.9415   27.5971   -8.0917 H           1 K26       0.0803
     50 H13        -7.2010   28.1012   -8.2203 H           1 K26       0.0345
     51 H14        -7.5299   29.6686   -6.3707 H           1 K26       0.0235
     52 H15        -5.9069   30.3425   -6.6092 H           1 K26       0.0235
     53 H16        -6.1018   28.6592   -6.0954 H           1 K26       0.0235
     54 H17        -8.3116   30.1728   -8.7139 H           1 K26       0.0267
     55 H18        -7.4310   29.6051  -10.1149 H           1 K26       0.0267
     56 H19        -7.3257   32.0627   -9.8667 H           1 K26       0.0230
     57 H20        -5.7048   31.3597   -9.7908 H           1 K26       0.0230
     58 H21        -6.5136   31.9073   -8.3023 H           1 K26       0.0230
     59 H22        -4.2846   30.3712   -8.5809 H           1 K26       0.1883
     60 H23        -0.9421   29.8546   -7.4906 H           1 K26       0.0467
     61 H24        -2.2983   30.9044   -7.0513 H           1 K26       0.0467
     62 H25        -1.7766   30.7810   -8.7466 H           1 K26       0.0467
     63 H26        -4.9220   24.3532  -12.6578 H           1 K26       0.0453
     64 H27        -5.1206   24.2398  -10.9179 H           1 K26       0.0453
     65 H28        -3.1122   24.3552   -9.5855 H           1 K26       0.0530
     66 H29        -0.7357   24.6880   -9.3851 H           1 K26       0.0525
     67 H30         1.1082   26.3980  -11.8038 H           1 K26       0.2458
     68 H31        -0.6021   26.2169  -13.3039 H           1 K26       0.0525
     69 H32        -2.9757   25.8718  -13.5257 H           1 K26       0.0530
@<TRIPOS>BOND
     1     1     2  ar
     2     1     7  ar
     3     2     3  ar
     4     3     4   1
     5     3     5  ar
     6     5     6  ar
     7     6     7  ar
     8     7     8   1
     9     8     9   1
    10     9    10   1
    11     9    14   1
    12    10    11  ar
    13    10    12  ar
    14    10    13  ar
    15    14    15  am
    16    15    16   2
    17    15    17   1
    18    17    18   1
    19    17    30   1
    20    18    19  am
    21    19    20   2
    22    19    21   1
    23    21    22   1
    24    21    26   1
    25    22    23   1
    26    22    24   1
    27    24    25   1
    28    26    27  am
    29    27    28   1
    30    27    29   2
    31    30    31   1
    32    31    32  ar
    33    31    37  ar
    34    32    33  ar
    35    33    34  ar
    36    34    35   1
    37    34    36  ar
    38    36    37  ar
    39     1    38   1
    40     2    39   1
    41     4    40   1
    42     5    41   1
    43     6    42   1
    44     8    43   1
    45     8    44   1
    46     9    45   1
    47    14    46   1
    48    17    47   1
    49    18    48   1
    50    21    49   1
    51    22    50   1
    52    23    51   1
    53    23    52   1
    54    23    53   1
    55    24    54   1
    56    24    55   1
    57    25    56   1
    58    25    57   1
    59    25    58   1
    60    26    59   1
    61    28    60   1
    62    28    61   1
    63    28    62   1
    64    30    63   1
    65    30    64   1
    66    32    65   1
    67    33    66   1
    68    35    67   1
    69    36    68   1
    70    37    69   1
@<TRIPOS>SUBSTRUCTURE
     1  K26      1

