@<TRIPOS>MOLECULE
2xhm_ligand_062
    69    70
SMALL
GAST_HUCK
****
This file was generated by PARSER (from files_GN.cpp)

@<TRIPOS>ATOM
      1 CAR        -4.9933   25.0932  -15.4071 C.ar        1 K26      -0.0686
      2 CAN        -5.1498   24.0259  -14.5015 C.ar        1 K26      -0.0398
      3 CBD        -5.2055   22.7017  -14.9746 C.ar        1 K26       0.0805
      4 OAI        -5.2947   21.6688  -14.1005 O.3         1 K26      -0.3376
      5 CAO        -5.1326   22.4530  -16.3557 C.ar        1 K26      -0.0398
      6 CAS        -4.9747   23.5205  -17.2613 C.ar        1 K26      -0.0686
      7 CBF        -4.8886   24.8588  -16.8016 C.ar        1 K26      -0.0501
      8 CAV        -4.5943   25.9840  -17.7433 C.3         1 K26       0.0145
      9 CBI        -5.6381   27.1449  -17.7404 C.3         1 K26       0.1207
     10 PBK        -5.2324   28.3930  -18.7729 P.3         1 K26       0.0863
     11 OAJ        -3.8064   28.5995  -18.8643 O.co2       1 K26      -0.5606
     12 OAK        -5.7486   28.1369  -20.0970 O.co2       1 K26      -0.5606
     13 OAG        -5.8164   29.6345  -18.3217 O.co2       1 K26      -0.5606
     14 NAY        -6.9250   26.6103  -18.0949 N.am        1 K26      -0.2653
     15 C          -8.0901   27.2433  -18.0558 C.2         1 K26       0.2049
     16 O          -8.1565   28.4126  -17.6907 O.2         1 K26      -0.3943
     17 CA         -9.3243   26.4992  -18.2679 C.3         1 K26       0.1389
     18 N          -9.7589   25.9609  -17.0083 N.am        1 K26      -0.2621
     19 CBB        -9.0902   25.0904  -16.2538 C.2         1 K26       0.2043
     20 OAF        -7.9871   24.6816  -16.6039 O.2         1 K26      -0.3944
     21 CBJ        -9.6810   24.5780  -15.0214 C.3         1 K26       0.1334
     22 CBG       -11.1609   24.0730  -15.2032 C.3         1 K26      -0.0037
     23 CAC       -11.4111   23.3330  -16.5552 C.3         1 K26      -0.0582
     24 CAT       -11.6638   23.2342  -13.9755 C.3         1 K26      -0.0491
     25 CAA       -10.9197   21.9066  -13.6828 C.3         1 K26      -0.0648
     26 NAX        -9.6234   25.5833  -14.0021 N.am        1 K26      -0.2656
     27 CAZ        -8.5408   26.2311  -13.5916 C.2         1 K26       0.1751
     28 CAB        -8.6930   27.1981  -12.5368 C.3         1 K26       0.0258
     29 OAD        -7.4415   26.0425  -14.0920 O.2         1 K26      -0.3972
     30 CB        -10.4717   27.3594  -18.8786 C.3         1 K26       0.0163
     31 CG        -10.1911   27.8410  -20.2604 C.ar        1 K26      -0.0493
     32 CD1        -9.7726   29.1731  -20.4876 C.ar        1 K26      -0.0685
     33 CE1        -9.6416   29.6650  -21.8004 C.ar        1 K26      -0.0398
     34 CZ         -9.9141   28.8378  -22.9027 C.ar        1 K26       0.0805
     35 OH         -9.8182   29.3138  -24.1754 O.3         1 K26      -0.3376
     36 CE2       -10.2884   27.4967  -22.6869 C.ar        1 K26      -0.0398
     37 CD2       -10.4240   27.0032  -21.3759 C.ar        1 K26      -0.0685
     38 H1         -4.9320   26.0434  -15.0372 H           1 K26       0.0530
     39 H2         -5.2103   24.2155  -13.4994 H           1 K26       0.0525
     40 H3         -6.2188   21.6947  -13.7715 H           1 K26       0.2458
     41 H4         -5.1746   21.4914  -16.7041 H           1 K26       0.0525
     42 H5         -4.9071   23.3089  -18.2600 H           1 K26       0.0530
     43 H6         -4.5005   25.6074  -18.7654 H           1 K26       0.0442
     44 H7         -3.6174   26.3805  -17.4567 H           1 K26       0.0442
     45 H8         -5.6694   27.5529  -16.7250 H           1 K26       0.0771
     46 H9         -6.9469   25.6614  -18.3170 H           1 K26       0.1870
     47 H10        -9.1588   25.6561  -18.9524 H           1 K26       0.0821
     48 H11       -10.6392   26.2325  -16.6970 H           1 K26       0.1885
     49 H12        -9.0892   23.7226  -14.6958 H           1 K26       0.0803
     50 H13       -11.8063   24.9687  -15.2338 H           1 K26       0.0345
     51 H14       -12.4404   22.9669  -16.5961 H           1 K26       0.0235
     52 H15       -10.7233   22.4954  -16.6737 H           1 K26       0.0235
     53 H16       -11.2777   24.0196  -17.3926 H           1 K26       0.0235
     54 H17       -12.7213   23.0006  -14.1265 H           1 K26       0.0267
     55 H18       -11.6088   23.8514  -13.0747 H           1 K26       0.0267
     56 H19       -11.4647   21.3422  -12.9223 H           1 K26       0.0230
     57 H20        -9.9137   22.0991  -13.3035 H           1 K26       0.0230
     58 H21       -10.8462   21.2889  -14.5788 H           1 K26       0.0230
     59 H22       -10.4494   25.7933  -13.5439 H           1 K26       0.1883
     60 H23        -7.7455   27.6943  -12.3065 H           1 K26       0.0467
     61 H24        -9.0510   26.6961  -11.6363 H           1 K26       0.0467
     62 H25        -9.4189   27.9592  -12.8340 H           1 K26       0.0467
     63 H26       -10.7013   28.1939  -18.2088 H           1 K26       0.0453
     64 H27       -11.3882   26.7565  -18.9245 H           1 K26       0.0453
     65 H28        -9.5905   29.8009  -19.7047 H           1 K26       0.0530
     66 H29        -9.3753   30.6369  -21.9485 H           1 K26       0.0525
     67 H30       -10.4832   30.0383  -24.2501 H           1 K26       0.2458
     68 H31       -10.5055   26.8929  -23.4803 H           1 K26       0.0525
     69 H32       -10.7336   26.0369  -21.2439 H           1 K26       0.0530
@<TRIPOS>BOND
     1     1     2  ar
     2     1     7  ar
     3     2     3  ar
     4     3     4   1
     5     3     5  ar
     6     5     6  ar
     7     6     7  ar
     8     7     8   1
     9     8     9   1
    10     9    10   1
    11     9    14   1
    12    10    11  ar
    13    10    12  ar
    14    10    13  ar
    15    14    15  am
    16    15    16   2
    17    15    17   1
    18    17    18   1
    19    17    30   1
    20    18    19  am
    21    19    20   2
    22    19    21   1
    23    21    22   1
    24    21    26   1
    25    22    23   1
    26    22    24   1
    27    24    25   1
    28    26    27  am
    29    27    28   1
    30    27    29   2
    31    30    31   1
    32    31    32  ar
    33    31    37  ar
    34    32    33  ar
    35    33    34  ar
    36    34    35   1
    37    34    36  ar
    38    36    37  ar
    39     1    38   1
    40     2    39   1
    41     4    40   1
    42     5    41   1
    43     6    42   1
    44     8    43   1
    45     8    44   1
    46     9    45   1
    47    14    46   1
    48    17    47   1
    49    18    48   1
    50    21    49   1
    51    22    50   1
    52    23    51   1
    53    23    52   1
    54    23    53   1
    55    24    54   1
    56    24    55   1
    57    25    56   1
    58    25    57   1
    59    25    58   1
    60    26    59   1
    61    28    60   1
    62    28    61   1
    63    28    62   1
    64    30    63   1
    65    30    64   1
    66    32    65   1
    67    33    66   1
    68    35    67   1
    69    36    68   1
    70    37    69   1
@<TRIPOS>SUBSTRUCTURE
     1  K26      1

