@<TRIPOS>MOLECULE
2xhm_ligand_002
    69    70
SMALL
GAST_HUCK
****
This file was generated by PARSER (from files_GN.cpp)

@<TRIPOS>ATOM
      1 CAR       -22.4143   22.5692   -9.9027 C.ar        1 K26      -0.0686
      2 CAN       -22.6943   22.9134  -11.2365 C.ar        1 K26      -0.0398
      3 CBD       -21.9927   23.9624  -11.8579 C.ar        1 K26       0.0805
      4 OAI       -22.2250   24.2232  -13.1696 O.3         1 K26      -0.3376
      5 CAO       -21.0611   24.7120  -11.1156 C.ar        1 K26      -0.0398
      6 CAS       -20.8020   24.3818   -9.7720 C.ar        1 K26      -0.0686
      7 CBF       -21.4377   23.2757   -9.1571 C.ar        1 K26      -0.0501
      8 CAV       -21.1195   22.8575   -7.7543 C.3         1 K26       0.0145
      9 CBI       -19.6377   23.0411   -7.2816 C.3         1 K26       0.1207
     10 PBK       -19.3209   22.3671   -5.7886 P.3         1 K26       0.0863
     11 OAJ       -20.2232   21.2995   -5.4145 O.co2       1 K26      -0.5606
     12 OAK       -17.9842   21.8106   -5.7016 O.co2       1 K26      -0.5606
     13 OAG       -19.4102   23.3664   -4.7455 O.co2       1 K26      -0.5606
     14 NAY       -18.7321   22.4992   -8.2666 N.am        1 K26      -0.2653
     15 C         -17.9221   23.1890   -9.0736 C.2         1 K26       0.2049
     16 O         -17.9114   24.4165   -9.0242 O.2         1 K26      -0.3943
     17 CA        -17.1075   22.5783  -10.1231 C.3         1 K26       0.1389
     18 N         -15.7271   22.9572   -9.9297 N.am        1 K26      -0.2621
     19 CBB       -14.7336   22.7856  -10.8015 C.2         1 K26       0.2043
     20 OAF       -14.9368   22.1584  -11.8350 O.2         1 K26      -0.3944
     21 CBJ       -13.4048   23.3468  -10.5230 C.3         1 K26       0.1334
     22 CBG       -13.4741   24.8915  -10.1725 C.3         1 K26      -0.0037
     23 CAC       -12.6779   25.2256   -8.8780 C.3         1 K26      -0.0582
     24 CAT       -13.1449   25.8774  -11.3533 C.3         1 K26      -0.0491
     25 CAA       -11.6765   26.3563  -11.5010 C.3         1 K26      -0.0648
     26 NAX       -12.5074   23.0928  -11.6282 N.am        1 K26      -0.2656
     27 CAZ       -11.4256   22.3316  -11.6565 C.2         1 K26       0.1751
     28 CAB       -10.7344   22.1617  -12.9134 C.3         1 K26       0.0258
     29 OAD       -11.0082   21.7616  -10.6566 O.2         1 K26      -0.3972
     30 CB        -17.1968   21.0246  -10.2486 C.3         1 K26       0.0163
     31 CG        -18.4595   20.4485  -10.7928 C.ar        1 K26      -0.0493
     32 CD1       -18.8552   19.1445  -10.3989 C.ar        1 K26      -0.0685
     33 CE1       -19.9365   18.4925  -11.0165 C.ar        1 K26      -0.0398
     34 CZ        -20.6262   19.1196  -12.0702 C.ar        1 K26       0.0805
     35 OH        -21.6348   18.4608  -12.6985 O.3         1 K26      -0.3376
     36 CE2       -20.2604   20.4210  -12.4644 C.ar        1 K26      -0.0398
     37 CD2       -19.1869   21.0766  -11.8329 C.ar        1 K26      -0.0685
     38 H1        -22.9286   21.7913   -9.4797 H           1 K26       0.0530
     39 H2        -23.3939   22.3835  -11.7597 H           1 K26       0.0525
     40 H3        -21.5201   24.8423  -13.4589 H           1 K26       0.2458
     41 H4        -20.5627   25.4925  -11.5498 H           1 K26       0.0525
     42 H5        -20.1230   24.9437   -9.2578 H           1 K26       0.0530
     43 H6        -21.3918   21.8032   -7.6387 H           1 K26       0.0442
     44 H7        -21.7688   23.4243   -7.0819 H           1 K26       0.0442
     45 H8        -19.4728   24.1165   -7.1641 H           1 K26       0.0771
     46 H9        -18.7501   21.5343   -8.3768 H           1 K26       0.1870
     47 H10       -17.4500   23.0233  -11.0644 H           1 K26       0.0821
     48 H11       -15.5178   23.4549   -9.1182 H           1 K26       0.1885
     49 H12       -13.0541   22.7974   -9.6406 H           1 K26       0.0803
     50 H13       -14.5118   25.1226   -9.9016 H           1 K26       0.0345
     51 H14       -12.7496   26.2905   -8.6491 H           1 K26       0.0235
     52 H15       -11.6264   24.9561   -8.9911 H           1 K26       0.0235
     53 H16       -13.0867   24.6738   -8.0296 H           1 K26       0.0235
     54 H17       -13.7611   26.7730  -11.2366 H           1 K26       0.0267
     55 H18       -13.4462   25.4169  -12.2978 H           1 K26       0.0267
     56 H19       -11.5563   26.8856  -12.4477 H           1 K26       0.0230
     57 H20       -10.9795   25.5195  -11.4848 H           1 K26       0.0230
     58 H21       -11.4156   27.0432  -10.6935 H           1 K26       0.0230
     59 H22       -12.7553   23.4963  -12.4749 H           1 K26       0.1883
     60 H23        -9.8729   21.4974  -12.8144 H           1 K26       0.0467
     61 H24       -10.3834   23.1294  -13.2758 H           1 K26       0.0467
     62 H25       -11.4133   21.7335  -13.6543 H           1 K26       0.0467
     63 H26       -16.9642   20.5984   -9.2651 H           1 K26       0.0453
     64 H27       -16.4121   20.6783  -10.9229 H           1 K26       0.0453
     65 H28       -18.3316   18.6423   -9.6771 H           1 K26       0.0530
     66 H29       -20.1950   17.5453  -10.7249 H           1 K26       0.0525
     67 H30       -21.4012   18.4980  -13.6509 H           1 K26       0.2458
     68 H31       -20.7650   20.8794  -13.2297 H           1 K26       0.0525
     69 H32       -18.9177   22.0121  -12.1496 H           1 K26       0.0530
@<TRIPOS>BOND
     1     1     2  ar
     2     1     7  ar
     3     2     3  ar
     4     3     4   1
     5     3     5  ar
     6     5     6  ar
     7     6     7  ar
     8     7     8   1
     9     8     9   1
    10     9    10   1
    11     9    14   1
    12    10    11  ar
    13    10    12  ar
    14    10    13  ar
    15    14    15  am
    16    15    16   2
    17    15    17   1
    18    17    18   1
    19    17    30   1
    20    18    19  am
    21    19    20   2
    22    19    21   1
    23    21    22   1
    24    21    26   1
    25    22    23   1
    26    22    24   1
    27    24    25   1
    28    26    27  am
    29    27    28   1
    30    27    29   2
    31    30    31   1
    32    31    32  ar
    33    31    37  ar
    34    32    33  ar
    35    33    34  ar
    36    34    35   1
    37    34    36  ar
    38    36    37  ar
    39     1    38   1
    40     2    39   1
    41     4    40   1
    42     5    41   1
    43     6    42   1
    44     8    43   1
    45     8    44   1
    46     9    45   1
    47    14    46   1
    48    17    47   1
    49    18    48   1
    50    21    49   1
    51    22    50   1
    52    23    51   1
    53    23    52   1
    54    23    53   1
    55    24    54   1
    56    24    55   1
    57    25    56   1
    58    25    57   1
    59    25    58   1
    60    26    59   1
    61    28    60   1
    62    28    61   1
    63    28    62   1
    64    30    63   1
    65    30    64   1
    66    32    65   1
    67    33    66   1
    68    35    67   1
    69    36    68   1
    70    37    69   1
@<TRIPOS>SUBSTRUCTURE
     1  K26      1

