@<TRIPOS>MOLECULE
2xhm_ligand_037
    69    70
SMALL
GAST_HUCK
****
This file was generated by PARSER (from files_GN.cpp)

@<TRIPOS>ATOM
      1 CAR        -8.7880   24.5393  -10.8346 C.ar        1 K26      -0.0686
      2 CAN        -7.8511   24.1128  -11.7926 C.ar        1 K26      -0.0398
      3 CBD        -6.9429   23.0878  -11.4886 C.ar        1 K26       0.0805
      4 OAI        -6.0577   22.6638  -12.4179 O.3         1 K26      -0.3376
      5 CAO        -6.9578   22.5122  -10.2082 C.ar        1 K26      -0.0398
      6 CAS        -7.8926   22.9422   -9.2488 C.ar        1 K26      -0.0686
      7 CBF        -8.8438   23.9486   -9.5501 C.ar        1 K26      -0.0501
      8 CAV        -9.7925   24.4158   -8.4911 C.3         1 K26       0.0145
      9 CBI       -11.3080   24.6461   -8.8373 C.3         1 K26       0.1207
     10 PBK       -11.6680   26.1339   -9.5132 P.3         1 K26       0.0863
     11 OAJ       -10.5244   27.0126   -9.6554 O.co2       1 K26      -0.5606
     12 OAK       -12.2738   26.0384  -10.8207 O.co2       1 K26      -0.5606
     13 OAG       -12.6010   26.8788   -8.6947 O.co2       1 K26      -0.5606
     14 NAY       -11.8448   23.5253   -9.5840 N.am        1 K26      -0.2653
     15 C         -13.1298   23.2920   -9.8677 C.2         1 K26       0.2049
     16 O         -13.9778   24.1131   -9.5421 O.2         1 K26      -0.3943
     17 CA        -13.5256   22.0946  -10.6162 C.3         1 K26       0.1389
     18 N         -14.8626   21.6045  -10.3449 N.am        1 K26      -0.2621
     19 CBB       -16.0523   22.1135  -10.6937 C.2         1 K26       0.2043
     20 OAF       -16.0981   23.1685  -11.3166 O.2         1 K26      -0.3944
     21 CBJ       -17.2841   21.3928  -10.3315 C.3         1 K26       0.1334
     22 CBG       -18.6568   22.1263  -10.6150 C.3         1 K26      -0.0037
     23 CAC       -18.9214   22.2447  -12.1470 C.3         1 K26      -0.0582
     24 CAT       -19.9053   21.4762   -9.9086 C.3         1 K26      -0.0491
     25 CAA       -20.9415   22.5085   -9.3924 C.3         1 K26      -0.0648
     26 NAX       -17.1068   20.9296   -8.9850 N.am        1 K26      -0.2656
     27 CAZ       -17.4665   21.5408   -7.8597 C.2         1 K26       0.1751
     28 CAB       -16.9471   21.0365   -6.6092 C.3         1 K26       0.0258
     29 OAD       -18.1730   22.5403   -7.8742 O.2         1 K26      -0.3972
     30 CB        -13.3238   22.2425  -12.1539 C.3         1 K26       0.0163
     31 CG        -11.9190   22.3367  -12.6531 C.ar        1 K26      -0.0493
     32 CD1       -11.1466   21.1656  -12.8293 C.ar        1 K26      -0.0685
     33 CE1        -9.8916   21.2199  -13.4674 C.ar        1 K26      -0.0398
     34 CZ         -9.3824   22.4516  -13.9140 C.ar        1 K26       0.0805
     35 OH         -8.1875   22.5135  -14.5563 O.3         1 K26      -0.3376
     36 CE2       -10.1157   23.6297  -13.7031 C.ar        1 K26      -0.0398
     37 CD2       -11.3867   23.5721  -13.0954 C.ar        1 K26      -0.0685
     38 H1         -9.4193   25.2922  -11.0887 H           1 K26       0.0530
     39 H2         -7.8383   24.5445  -12.7207 H           1 K26       0.0525
     40 H3         -6.3333   21.7323  -12.5971 H           1 K26       0.2458
     41 H4         -6.2877   21.7823   -9.9668 H           1 K26       0.0525
     42 H5         -7.8580   22.5229   -8.3105 H           1 K26       0.0530
     43 H6         -9.3761   25.3289   -8.0564 H           1 K26       0.0442
     44 H7         -9.7835   23.6889   -7.6666 H           1 K26       0.0442
     45 H8        -11.8252   24.6368   -7.8659 H           1 K26       0.0771
     46 H9        -11.2142   22.8425   -9.8661 H           1 K26       0.1870
     47 H10       -12.8841   21.2794  -10.2745 H           1 K26       0.0821
     48 H11       -14.9070   20.7501   -9.8765 H           1 K26       0.1885
     49 H12       -17.2892   20.4866  -10.9307 H           1 K26       0.0803
     50 H13       -18.5538   23.1491  -10.2277 H           1 K26       0.0345
     51 H14       -19.7848   22.8880  -12.3391 H           1 K26       0.0235
     52 H15       -19.1240   21.2605  -12.5775 H           1 K26       0.0235
     53 H16       -18.0666   22.6751  -12.6762 H           1 K26       0.0235
     54 H17       -19.5964   20.8883   -9.0393 H           1 K26       0.0267
     55 H18       -20.4083   20.7867  -10.5944 H           1 K26       0.0267
     56 H19       -21.7670   21.9857   -8.9003 H           1 K26       0.0230
     57 H20       -21.3462   23.0996  -10.2185 H           1 K26       0.0230
     58 H21       -20.4660   23.1762   -8.6684 H           1 K26       0.0230
     59 H22       -16.5593   20.1317   -8.8890 H           1 K26       0.1883
     60 H23       -17.3819   21.5545   -5.7489 H           1 K26       0.0467
     61 H24       -15.8667   21.1903   -6.5947 H           1 K26       0.0467
     62 H25       -17.1531   19.9673   -6.5154 H           1 K26       0.0467
     63 H26       -13.9043   23.1029  -12.5040 H           1 K26       0.0453
     64 H27       -13.7571   21.3632  -12.6359 H           1 K26       0.0453
     65 H28       -11.5144   20.2547  -12.5369 H           1 K26       0.0530
     66 H29        -9.3677   20.3615  -13.6208 H           1 K26       0.0525
     67 H30        -8.3193   22.0129  -15.3961 H           1 K26       0.2458
     68 H31        -9.7516   24.5324  -14.0281 H           1 K26       0.0525
     69 H32       -11.9305   24.4311  -13.0088 H           1 K26       0.0530
@<TRIPOS>BOND
     1     1     2  ar
     2     1     7  ar
     3     2     3  ar
     4     3     4   1
     5     3     5  ar
     6     5     6  ar
     7     6     7  ar
     8     7     8   1
     9     8     9   1
    10     9    10   1
    11     9    14   1
    12    10    11  ar
    13    10    12  ar
    14    10    13  ar
    15    14    15  am
    16    15    16   2
    17    15    17   1
    18    17    18   1
    19    17    30   1
    20    18    19  am
    21    19    20   2
    22    19    21   1
    23    21    22   1
    24    21    26   1
    25    22    23   1
    26    22    24   1
    27    24    25   1
    28    26    27  am
    29    27    28   1
    30    27    29   2
    31    30    31   1
    32    31    32  ar
    33    31    37  ar
    34    32    33  ar
    35    33    34  ar
    36    34    35   1
    37    34    36  ar
    38    36    37  ar
    39     1    38   1
    40     2    39   1
    41     4    40   1
    42     5    41   1
    43     6    42   1
    44     8    43   1
    45     8    44   1
    46     9    45   1
    47    14    46   1
    48    17    47   1
    49    18    48   1
    50    21    49   1
    51    22    50   1
    52    23    51   1
    53    23    52   1
    54    23    53   1
    55    24    54   1
    56    24    55   1
    57    25    56   1
    58    25    57   1
    59    25    58   1
    60    26    59   1
    61    28    60   1
    62    28    61   1
    63    28    62   1
    64    30    63   1
    65    30    64   1
    66    32    65   1
    67    33    66   1
    68    35    67   1
    69    36    68   1
    70    37    69   1
@<TRIPOS>SUBSTRUCTURE
     1  K26      1

