@<TRIPOS>MOLECULE
2xhm_ligand_000
    69    70
SMALL
GAST_HUCK
****
This file was generated by PARSER (from files_GN.cpp)

@<TRIPOS>ATOM
      1 CAR       -20.9847   21.4468  -11.7777 C.ar        1 K26      -0.0686
      2 CAN       -21.7581   20.9301  -12.8311 C.ar        1 K26      -0.0398
      3 CBD       -23.1564   21.1054  -12.8379 C.ar        1 K26       0.0805
      4 OAI       -23.9173   20.6069  -13.8441 O.3         1 K26      -0.3376
      5 CAO       -23.7759   21.7966  -11.7798 C.ar        1 K26      -0.0398
      6 CAS       -23.0001   22.3396  -10.7423 C.ar        1 K26      -0.0686
      7 CBF       -21.5891   22.1856  -10.7304 C.ar        1 K26      -0.0501
      8 CAV       -20.7733   22.7393   -9.6067 C.3         1 K26       0.0145
      9 CBI       -19.4531   23.4972  -10.0365 C.3         1 K26       0.1207
     10 PBK       -19.3044   25.0907   -9.5336 P.3         1 K26       0.0863
     11 OAJ       -20.2432   25.5069   -8.5214 O.co2       1 K26      -0.5606
     12 OAK       -17.9908   25.3828   -9.0152 O.co2       1 K26      -0.5606
     13 OAG       -19.4787   25.9894  -10.6469 O.co2       1 K26      -0.5606
     14 NAY       -18.3191   22.7516   -9.5420 N.am        1 K26      -0.2653
     15 C         -17.1568   22.5441  -10.1638 C.2         1 K26       0.2049
     16 O         -16.9131   23.1272  -11.2197 O.2         1 K26      -0.3943
     17 CA        -16.1617   21.5738   -9.6908 C.3         1 K26       0.1389
     18 N         -14.8149   22.0715   -9.7376 N.am        1 K26      -0.2621
     19 CBB       -14.0716   22.3107  -10.8144 C.2         1 K26       0.2043
     20 OAF       -14.5212   22.0452  -11.9174 O.2         1 K26      -0.3944
     21 CBJ       -12.6795   22.7327  -10.6699 C.3         1 K26       0.1334
     22 CBG       -12.4722   23.9292   -9.6720 C.3         1 K26      -0.0037
     23 CAC       -10.9811   24.3730   -9.5994 C.3         1 K26      -0.0582
     24 CAT       -13.4547   25.1457   -9.8045 C.3         1 K26      -0.0491
     25 CAA       -13.1958   26.1634  -10.9407 C.3         1 K26      -0.0648
     26 NAX       -12.1092   23.0190  -11.9598 N.am        1 K26      -0.2656
     27 CAZ       -11.3523   22.2213  -12.7029 C.2         1 K26       0.1751
     28 CAB       -11.0322   22.6325  -14.0506 C.3         1 K26       0.0258
     29 OAD       -10.9541   21.1408  -12.2945 O.2         1 K26      -0.3972
     30 CB        -16.3420   20.9841   -8.2483 C.3         1 K26       0.0163
     31 CG        -17.6974   20.4733   -7.8985 C.ar        1 K26      -0.0493
     32 CD1       -18.5102   19.8210   -8.8597 C.ar        1 K26      -0.0685
     33 CE1       -19.8184   19.4185   -8.5327 C.ar        1 K26      -0.0398
     34 CZ        -20.3114   19.6185   -7.2285 C.ar        1 K26       0.0805
     35 OH        -21.5590   19.2105   -6.9049 O.3         1 K26      -0.3376
     36 CE2       -19.4970   20.2075   -6.2462 C.ar        1 K26      -0.0398
     37 CD2       -18.1974   20.6287   -6.5806 C.ar        1 K26      -0.0685
     38 H1        -19.9731   21.2927  -11.7774 H           1 K26       0.0530
     39 H2        -21.2966   20.4266  -13.5904 H           1 K26       0.0525
     40 H3        -23.3023   20.4717  -14.5965 H           1 K26       0.2458
     41 H4        -24.7909   21.9134  -11.7719 H           1 K26       0.0525
     42 H5        -23.4790   22.8401   -9.9897 H           1 K26       0.0530
     43 H6        -20.5224   21.8881   -8.9705 H           1 K26       0.0442
     44 H7        -21.4054   23.3829   -8.9863 H           1 K26       0.0442
     45 H8        -19.4214   23.5447  -11.1338 H           1 K26       0.0771
     46 H9        -18.4247   22.3347   -8.6679 H           1 K26       0.1870
     47 H10       -16.2148   20.7154  -10.3693 H           1 K26       0.0821
     48 H11       -14.3619   22.1813   -8.8882 H           1 K26       0.1885
     49 H12       -12.1632   21.8780  -10.2256 H           1 K26       0.0803
     50 H13       -12.6745   23.5245   -8.6723 H           1 K26       0.0345
     51 H14       -10.8474   25.1429   -8.8370 H           1 K26       0.0235
     52 H15       -10.6405   24.7682  -10.5555 H           1 K26       0.0235
     53 H16       -10.3503   23.5219   -9.3329 H           1 K26       0.0235
     54 H17       -13.4280   25.7057   -8.8632 H           1 K26       0.0267
     55 H18       -14.4739   24.7720   -9.9151 H           1 K26       0.0267
     56 H19       -13.9393   26.9599  -10.8846 H           1 K26       0.0230
     57 H20       -13.2807   25.6987  -11.9219 H           1 K26       0.0230
     58 H21       -12.2081   26.6209  -10.8414 H           1 K26       0.0230
     59 H22       -12.4016   23.8336  -12.3903 H           1 K26       0.1883
     60 H23       -10.4350   21.8785  -14.5724 H           1 K26       0.0467
     61 H24       -10.4698   23.5678  -14.0339 H           1 K26       0.0467
     62 H25       -11.9535   22.7863  -14.6148 H           1 K26       0.0467
     63 H26       -16.0490   21.7527   -7.5290 H           1 K26       0.0453
     64 H27       -15.6319   20.1604   -8.1138 H           1 K26       0.0453
     65 H28       -18.1712   19.6666   -9.8126 H           1 K26       0.0530
     66 H29       -20.4119   18.9946   -9.2485 H           1 K26       0.0525
     67 H30       -21.5763   18.2633   -7.1573 H           1 K26       0.2458
     68 H31       -19.8489   20.3527   -5.3012 H           1 K26       0.0525
     69 H32       -17.6313   21.0809   -5.8633 H           1 K26       0.0530
@<TRIPOS>BOND
     1     1     2  ar
     2     1     7  ar
     3     2     3  ar
     4     3     4   1
     5     3     5  ar
     6     5     6  ar
     7     6     7  ar
     8     7     8   1
     9     8     9   1
    10     9    10   1
    11     9    14   1
    12    10    11  ar
    13    10    12  ar
    14    10    13  ar
    15    14    15  am
    16    15    16   2
    17    15    17   1
    18    17    18   1
    19    17    30   1
    20    18    19  am
    21    19    20   2
    22    19    21   1
    23    21    22   1
    24    21    26   1
    25    22    23   1
    26    22    24   1
    27    24    25   1
    28    26    27  am
    29    27    28   1
    30    27    29   2
    31    30    31   1
    32    31    32  ar
    33    31    37  ar
    34    32    33  ar
    35    33    34  ar
    36    34    35   1
    37    34    36  ar
    38    36    37  ar
    39     1    38   1
    40     2    39   1
    41     4    40   1
    42     5    41   1
    43     6    42   1
    44     8    43   1
    45     8    44   1
    46     9    45   1
    47    14    46   1
    48    17    47   1
    49    18    48   1
    50    21    49   1
    51    22    50   1
    52    23    51   1
    53    23    52   1
    54    23    53   1
    55    24    54   1
    56    24    55   1
    57    25    56   1
    58    25    57   1
    59    25    58   1
    60    26    59   1
    61    28    60   1
    62    28    61   1
    63    28    62   1
    64    30    63   1
    65    30    64   1
    66    32    65   1
    67    33    66   1
    68    35    67   1
    69    36    68   1
    70    37    69   1
@<TRIPOS>SUBSTRUCTURE
     1  K26      1

