@<TRIPOS>MOLECULE
2xhm_ligand_011
    69    70
SMALL
GAST_HUCK
****
This file was generated by PARSER (from files_GN.cpp)

@<TRIPOS>ATOM
      1 CAR       -11.7855   22.5784  -10.0464 C.ar        1 K26      -0.0686
      2 CAN       -12.5912   21.7749  -10.8749 C.ar        1 K26      -0.0398
      3 CBD       -13.9693   22.0356  -10.9879 C.ar        1 K26       0.0805
      4 OAI       -14.7457   21.2625  -11.7835 O.3         1 K26      -0.3376
      5 CAO       -14.5384   23.1036  -10.2722 C.ar        1 K26      -0.0398
      6 CAS       -13.7332   23.9063   -9.4435 C.ar        1 K26      -0.0686
      7 CBF       -12.3452   23.6532   -9.3156 C.ar        1 K26      -0.0501
      8 CAV       -11.4867   24.5102   -8.4431 C.3         1 K26       0.0145
      9 CBI       -10.4262   25.3902   -9.1896 C.3         1 K26       0.1207
     10 PBK       -11.1044   26.4358  -10.3092 P.3         1 K26       0.0863
     11 OAJ       -11.4513   25.7166  -11.5129 O.co2       1 K26      -0.5606
     12 OAK       -12.3240   27.0358   -9.8271 O.co2       1 K26      -0.5606
     13 OAG       -10.1972   27.4898  -10.6985 O.co2       1 K26      -0.5606
     14 NAY        -9.6553   26.1196   -8.2086 N.am        1 K26      -0.2653
     15 C          -8.4944   26.7532   -8.3955 C.2         1 K26       0.2049
     16 O          -7.9230   26.6966   -9.4796 O.2         1 K26      -0.3943
     17 CA         -7.8952   27.4814   -7.2807 C.3         1 K26       0.1389
     18 N          -7.5165   26.5444   -6.2538 N.am        1 K26      -0.2621
     19 CBB        -6.5722   25.6062   -6.2920 C.2         1 K26       0.2043
     20 OAF        -5.7664   25.5608   -7.2131 O.2         1 K26      -0.3944
     21 CBJ        -6.4280   24.6593   -5.1864 C.3         1 K26       0.1334
     22 CBG        -7.6149   23.6352   -5.0569 C.3         1 K26      -0.0037
     23 CAC        -9.0067   24.2658   -4.7655 C.3         1 K26      -0.0582
     24 CAT        -7.7100   22.5682   -6.1971 C.3         1 K26      -0.0491
     25 CAA        -7.5831   23.0666   -7.6604 C.3         1 K26      -0.0648
     26 NAX        -6.2348   25.3662   -3.9495 N.am        1 K26      -0.2656
     27 CAZ        -5.2605   26.2210   -3.6781 C.2         1 K26       0.1751
     28 CAB        -5.2997   26.9490   -2.4353 C.3         1 K26       0.0258
     29 OAD        -4.3564   26.4338   -4.4770 O.2         1 K26      -0.3972
     30 CB         -6.7320   28.4746   -7.6193 C.3         1 K26       0.0163
     31 CG         -6.9511   29.5550   -8.6211 C.ar        1 K26      -0.0493
     32 CD1        -8.1360   29.6987   -9.3796 C.ar        1 K26      -0.0685
     33 CE1        -8.2444   30.7036  -10.3603 C.ar        1 K26      -0.0398
     34 CZ         -7.1961   31.6194  -10.5636 C.ar        1 K26       0.0805
     35 OH         -7.3201   32.6239  -11.4628 O.3         1 K26      -0.3376
     36 CE2        -6.0187   31.5036   -9.8051 C.ar        1 K26      -0.0398
     37 CD2        -5.9009   30.4827   -8.8460 C.ar        1 K26      -0.0685
     38 H1        -10.7860   22.3725   -9.9805 H           1 K26       0.0530
     39 H2        -12.1730   21.0017  -11.3977 H           1 K26       0.0525
     40 H3        -14.7049   20.3731  -11.3690 H           1 K26       0.2458
     41 H4        -15.5401   23.2976  -10.3489 H           1 K26       0.0525
     42 H5        -14.1667   24.6831   -8.9390 H           1 K26       0.0530
     43 H6        -10.9691   23.8450   -7.7481 H           1 K26       0.0442
     44 H7        -12.1098   25.1667   -7.8266 H           1 K26       0.0442
     45 H8         -9.7579   24.7141   -9.7270 H           1 K26       0.0771
     46 H9         -9.9985   26.1209   -7.2975 H           1 K26       0.1870
     47 H10        -8.6826   28.1006   -6.8384 H           1 K26       0.0821
     48 H11        -8.0368   26.5951   -5.4394 H           1 K26       0.1885
     49 H12        -5.5276   24.0527   -5.3402 H           1 K26       0.0803
     50 H13        -7.3832   23.0570   -4.1561 H           1 K26       0.0345
     51 H14        -9.7152   23.4829   -4.4816 H           1 K26       0.0235
     52 H15        -9.4012   24.7809   -5.6390 H           1 K26       0.0235
     53 H16        -8.9328   24.9726   -3.9392 H           1 K26       0.0235
     54 H17        -8.6700   22.0578   -6.0978 H           1 K26       0.0267
     55 H18        -6.9464   21.8045   -6.0217 H           1 K26       0.0267
     56 H19        -7.8418   22.2596   -8.3496 H           1 K26       0.0230
     57 H20        -6.5546   23.3675   -7.8821 H           1 K26       0.0230
     58 H21        -8.2492   23.9094   -7.8515 H           1 K26       0.0230
     59 H22        -6.8984   25.2291   -3.2505 H           1 K26       0.1883
     60 H23        -4.5442   27.7368   -2.4178 H           1 K26       0.0467
     61 H24        -5.1251   26.2619   -1.6044 H           1 K26       0.0467
     62 H25        -6.2773   27.4169   -2.3078 H           1 K26       0.0467
     63 H26        -5.8770   27.8905   -7.9685 H           1 K26       0.0453
     64 H27        -6.4280   28.9661   -6.6888 H           1 K26       0.0453
     65 H28        -8.9262   29.0729   -9.2335 H           1 K26       0.0530
     66 H29        -9.0975   30.7687  -10.9224 H           1 K26       0.0525
     67 H30        -8.1890   33.0347  -11.2639 H           1 K26       0.2458
     68 H31        -5.2493   32.1623   -9.9464 H           1 K26       0.0525
     69 H32        -5.0284   30.4172   -8.3145 H           1 K26       0.0530
@<TRIPOS>BOND
     1     1     2  ar
     2     1     7  ar
     3     2     3  ar
     4     3     4   1
     5     3     5  ar
     6     5     6  ar
     7     6     7  ar
     8     7     8   1
     9     8     9   1
    10     9    10   1
    11     9    14   1
    12    10    11  ar
    13    10    12  ar
    14    10    13  ar
    15    14    15  am
    16    15    16   2
    17    15    17   1
    18    17    18   1
    19    17    30   1
    20    18    19  am
    21    19    20   2
    22    19    21   1
    23    21    22   1
    24    21    26   1
    25    22    23   1
    26    22    24   1
    27    24    25   1
    28    26    27  am
    29    27    28   1
    30    27    29   2
    31    30    31   1
    32    31    32  ar
    33    31    37  ar
    34    32    33  ar
    35    33    34  ar
    36    34    35   1
    37    34    36  ar
    38    36    37  ar
    39     1    38   1
    40     2    39   1
    41     4    40   1
    42     5    41   1
    43     6    42   1
    44     8    43   1
    45     8    44   1
    46     9    45   1
    47    14    46   1
    48    17    47   1
    49    18    48   1
    50    21    49   1
    51    22    50   1
    52    23    51   1
    53    23    52   1
    54    23    53   1
    55    24    54   1
    56    24    55   1
    57    25    56   1
    58    25    57   1
    59    25    58   1
    60    26    59   1
    61    28    60   1
    62    28    61   1
    63    28    62   1
    64    30    63   1
    65    30    64   1
    66    32    65   1
    67    33    66   1
    68    35    67   1
    69    36    68   1
    70    37    69   1
@<TRIPOS>SUBSTRUCTURE
     1  K26      1

