@<TRIPOS>MOLECULE
2xhm_ligand_064
    69    70
SMALL
GAST_HUCK
****
This file was generated by PARSER (from files_GN.cpp)

@<TRIPOS>ATOM
      1 CAR       -10.6530   26.7045  -12.0054 C.ar        1 K26      -0.0686
      2 CAN        -9.4067   27.0372  -12.5640 C.ar        1 K26      -0.0398
      3 CBD        -8.9395   26.3621  -13.7086 C.ar        1 K26       0.0805
      4 OAI        -7.7269   26.6542  -14.2499 O.3         1 K26      -0.3376
      5 CAO        -9.7367   25.3604  -14.2978 C.ar        1 K26      -0.0398
      6 CAS       -10.9896   25.0341  -13.7418 C.ar        1 K26      -0.0686
      7 CBF       -11.4512   25.6785  -12.5727 C.ar        1 K26      -0.0501
      8 CAV       -12.7139   25.2541  -11.9007 C.3         1 K26       0.0145
      9 CBI       -12.7299   23.7823  -11.3772 C.3         1 K26       0.1207
     10 PBK       -11.5227   23.3472  -10.2978 P.3         1 K26       0.0863
     11 OAJ       -11.0827   21.9938  -10.5485 O.co2       1 K26      -0.5606
     12 OAK       -10.3208   24.1416  -10.3958 O.co2       1 K26      -0.5606
     13 OAG       -11.9122   23.4276   -8.9135 O.co2       1 K26      -0.5606
     14 NAY       -13.9779   23.5754  -10.6956 N.am        1 K26      -0.2653
     15 C         -14.9472   22.7123  -10.9755 C.2         1 K26       0.2049
     16 O         -14.8938   21.9966  -11.9652 O.2         1 K26      -0.3943
     17 CA        -16.0751   22.5720  -10.0593 C.3         1 K26       0.1389
     18 N         -17.3140   22.8598  -10.7307 N.am        1 K26      -0.2621
     19 CBB       -18.2857   23.6610  -10.3148 C.2         1 K26       0.2043
     20 OAF       -18.0703   24.4660   -9.4091 O.2         1 K26      -0.3944
     21 CBJ       -19.5789   23.6822  -10.9886 C.3         1 K26       0.1334
     22 CBG       -20.7708   24.1999  -10.0911 C.3         1 K26      -0.0037
     23 CAC       -21.7707   25.0783  -10.9061 C.3         1 K26      -0.0582
     24 CAT       -21.4636   23.0826   -9.2307 C.3         1 K26      -0.0491
     25 CAA       -22.6595   22.3099   -9.8517 C.3         1 K26      -0.0648
     26 NAX       -19.9267   22.3712  -11.4527 N.am        1 K26      -0.2656
     27 CAZ       -20.1919   21.9862  -12.6887 C.2         1 K26       0.1751
     28 CAB       -20.5395   20.6026  -12.9117 C.3         1 K26       0.0258
     29 OAD       -20.1520   22.7556  -13.6370 O.2         1 K26      -0.3972
     30 CB        -16.1510   21.1300   -9.4742 C.3         1 K26       0.0163
     31 CG        -17.0987   20.9935   -8.3330 C.ar        1 K26      -0.0493
     32 CD1       -18.4628   20.6786   -8.5513 C.ar        1 K26      -0.0685
     33 CE1       -19.3584   20.5550   -7.4695 C.ar        1 K26      -0.0398
     34 CZ        -18.9037   20.7543   -6.1485 C.ar        1 K26       0.0805
     35 OH        -19.7511   20.6571   -5.0917 O.3         1 K26      -0.3376
     36 CE2       -17.5515   21.0602   -5.9217 C.ar        1 K26      -0.0398
     37 CD2       -16.6587   21.1743   -7.0015 C.ar        1 K26      -0.0685
     38 H1        -10.9575   27.1992  -11.1648 H           1 K26       0.0530
     39 H2         -8.8301   27.7628  -12.1254 H           1 K26       0.0525
     40 H3         -7.0624   26.2487  -13.6512 H           1 K26       0.2458
     41 H4         -9.4028   24.8550  -15.1225 H           1 K26       0.0525
     42 H5        -11.5475   24.2939  -14.1766 H           1 K26       0.0530
     43 H6        -13.5165   25.3687  -12.6314 H           1 K26       0.0442
     44 H7        -12.9512   25.9253  -11.0698 H           1 K26       0.0442
     45 H8        -12.6494   23.1205  -12.2467 H           1 K26       0.0771
     46 H9        -14.1130   24.1145   -9.8988 H           1 K26       0.1870
     47 H10       -15.9268   23.2494   -9.2118 H           1 K26       0.0821
     48 H11       -17.4723   22.3590  -11.5441 H           1 K26       0.1885
     49 H12       -19.4683   24.3767  -11.8206 H           1 K26       0.0803
     50 H13       -20.3362   24.9098   -9.3691 H           1 K26       0.0345
     51 H14       -22.5482   25.4782  -10.2502 H           1 K26       0.0235
     52 H15       -22.2463   24.5029  -11.7060 H           1 K26       0.0235
     53 H16       -21.2438   25.9267  -11.3613 H           1 K26       0.0235
     54 H17       -21.8271   23.5214   -8.2947 H           1 K26       0.0267
     55 H18       -20.7165   22.3415   -8.9314 H           1 K26       0.0267
     56 H19       -22.9391   21.4667   -9.2121 H           1 K26       0.0230
     57 H20       -22.4191   21.9168  -10.8410 H           1 K26       0.0230
     58 H21       -23.5276   22.9728   -9.9399 H           1 K26       0.0230
     59 H22       -19.9659   21.6793  -10.7753 H           1 K26       0.1883
     60 H23       -20.7150   20.3918  -13.9686 H           1 K26       0.0467
     61 H24       -21.4534   20.3588  -12.3590 H           1 K26       0.0467
     62 H25       -19.7351   19.9512  -12.5583 H           1 K26       0.0467
     63 H26       -15.1617   20.8162   -9.1354 H           1 K26       0.0453
     64 H27       -16.4407   20.4397  -10.2751 H           1 K26       0.0453
     65 H28       -18.8217   20.5383   -9.5027 H           1 K26       0.0530
     66 H29       -20.3448   20.3292   -7.6467 H           1 K26       0.0525
     67 H30       -19.9046   19.6941   -4.9546 H           1 K26       0.2458
     68 H31       -17.2128   21.1977   -4.9658 H           1 K26       0.0525
     69 H32       -15.6800   21.3794   -6.8124 H           1 K26       0.0530
@<TRIPOS>BOND
     1     1     2  ar
     2     1     7  ar
     3     2     3  ar
     4     3     4   1
     5     3     5  ar
     6     5     6  ar
     7     6     7  ar
     8     7     8   1
     9     8     9   1
    10     9    10   1
    11     9    14   1
    12    10    11  ar
    13    10    12  ar
    14    10    13  ar
    15    14    15  am
    16    15    16   2
    17    15    17   1
    18    17    18   1
    19    17    30   1
    20    18    19  am
    21    19    20   2
    22    19    21   1
    23    21    22   1
    24    21    26   1
    25    22    23   1
    26    22    24   1
    27    24    25   1
    28    26    27  am
    29    27    28   1
    30    27    29   2
    31    30    31   1
    32    31    32  ar
    33    31    37  ar
    34    32    33  ar
    35    33    34  ar
    36    34    35   1
    37    34    36  ar
    38    36    37  ar
    39     1    38   1
    40     2    39   1
    41     4    40   1
    42     5    41   1
    43     6    42   1
    44     8    43   1
    45     8    44   1
    46     9    45   1
    47    14    46   1
    48    17    47   1
    49    18    48   1
    50    21    49   1
    51    22    50   1
    52    23    51   1
    53    23    52   1
    54    23    53   1
    55    24    54   1
    56    24    55   1
    57    25    56   1
    58    25    57   1
    59    25    58   1
    60    26    59   1
    61    28    60   1
    62    28    61   1
    63    28    62   1
    64    30    63   1
    65    30    64   1
    66    32    65   1
    67    33    66   1
    68    35    67   1
    69    36    68   1
    70    37    69   1
@<TRIPOS>SUBSTRUCTURE
     1  K26      1

