@<TRIPOS>MOLECULE
2xhm_ligand_053
    69    70
SMALL
GAST_HUCK
****
This file was generated by PARSER (from files_GN.cpp)

@<TRIPOS>ATOM
      1 CAR        -5.7955   25.0101  -12.0816 C.ar        1 K26      -0.0686
      2 CAN        -5.8253   23.8739  -12.9093 C.ar        1 K26      -0.0398
      3 CBD        -5.1246   22.7132  -12.5383 C.ar        1 K26       0.0805
      4 OAI        -5.2252   21.5842  -13.2742 O.3         1 K26      -0.3376
      5 CAO        -4.3535   22.7149  -11.3644 C.ar        1 K26      -0.0398
      6 CAS        -4.3171   23.8562  -10.5453 C.ar        1 K26      -0.0686
      7 CBF        -5.0568   25.0202  -10.8727 C.ar        1 K26      -0.0501
      8 CAV        -5.0244   26.1541   -9.8962 C.3         1 K26       0.0145
      9 CBI        -6.0429   27.3396   -9.9803 C.3         1 K26       0.1207
     10 PBK        -5.6840   28.4908  -11.1436 P.3         1 K26       0.0863
     11 OAJ        -5.7648   29.8193  -10.5864 O.co2       1 K26      -0.5606
     12 OAK        -4.3640   28.3753  -11.7223 O.co2       1 K26      -0.5606
     13 OAG        -6.6183   28.4823  -12.2435 O.co2       1 K26      -0.5606
     14 NAY        -7.3719   26.7994  -10.0732 N.am        1 K26      -0.2653
     15 C          -8.5304   27.4322   -9.8841 C.2         1 K26       0.2049
     16 O          -8.5370   28.6251   -9.5746 O.2         1 K26      -0.3943
     17 CA         -9.8136   26.7319   -9.9860 C.3         1 K26       0.1389
     18 N          -9.7784   25.4592  -10.6796 N.am        1 K26      -0.2621
     19 CBB        -9.3816   25.2482  -11.9333 C.2         1 K26       0.2043
     20 OAF        -9.0494   26.2069  -12.6308 O.2         1 K26      -0.3944
     21 CBJ        -9.3310   23.8937  -12.5216 C.3         1 K26       0.1334
     22 CBG       -10.7017   23.2795  -13.0220 C.3         1 K26      -0.0037
     23 CAC       -11.8590   24.3230  -13.1006 C.3         1 K26      -0.0582
     24 CAT       -10.5663   22.5603  -14.4177 C.3         1 K26      -0.0491
     25 CAA        -9.7190   21.2676  -14.4546 C.3         1 K26      -0.0648
     26 NAX        -8.5766   22.9413  -11.7417 N.am        1 K26      -0.2656
     27 CAZ        -8.5051   22.7593  -10.4146 C.2         1 K26       0.1751
     28 CAB        -7.5982   21.7979   -9.8542 C.3         1 K26       0.0258
     29 OAD        -9.1096   23.4976   -9.6248 O.2         1 K26      -0.3972
     30 CB        -10.4963   26.5606   -8.5843 C.3         1 K26       0.0163
     31 CG         -9.8008   25.6669   -7.6062 C.ar        1 K26      -0.0493
     32 CD1        -8.5863   26.0659   -6.9944 C.ar        1 K26      -0.0685
     33 CE1        -7.9663   25.2662   -6.0160 C.ar        1 K26      -0.0398
     34 CZ         -8.5436   24.0449   -5.6304 C.ar        1 K26       0.0805
     35 OH         -7.9691   23.2689   -4.6746 O.3         1 K26      -0.3376
     36 CE2        -9.7440   23.6263   -6.2355 C.ar        1 K26      -0.0398
     37 CD2       -10.3656   24.4299   -7.2094 C.ar        1 K26      -0.0685
     38 H1         -6.3398   25.8190  -12.3726 H           1 K26       0.0530
     39 H2         -6.3864   23.8796  -13.7642 H           1 K26       0.0525
     40 H3         -6.1178   21.2330  -13.0750 H           1 K26       0.2458
     41 H4         -3.8437   21.8728  -11.0873 H           1 K26       0.0525
     42 H5         -3.7705   23.8241   -9.6822 H           1 K26       0.0530
     43 H6         -4.0061   26.5606   -9.8936 H           1 K26       0.0442
     44 H7         -5.1730   25.7103   -8.9038 H           1 K26       0.0442
     45 H8         -5.9695   27.8441   -9.0099 H           1 K26       0.0771
     46 H9         -7.4340   25.8459  -10.2589 H           1 K26       0.1870
     47 H10       -10.4754   27.3776  -10.5757 H           1 K26       0.0821
     48 H11       -10.1518   24.7194  -10.1945 H           1 K26       0.1885
     49 H12        -8.7212   24.0005  -13.4250 H           1 K26       0.0803
     50 H13       -11.0298   22.5205  -12.3022 H           1 K26       0.0345
     51 H14       -12.7821   23.8704  -13.4797 H           1 K26       0.0235
     52 H15       -11.5844   25.1615  -13.7525 H           1 K26       0.0235
     53 H16       -12.0843   24.7172  -12.1035 H           1 K26       0.0235
     54 H17       -10.1506   23.2618  -15.1469 H           1 K26       0.0267
     55 H18       -11.5588   22.2895  -14.7786 H           1 K26       0.0267
     56 H19        -9.7306   20.8502  -15.4675 H           1 K26       0.0230
     57 H20       -10.1278   20.5193  -13.7717 H           1 K26       0.0230
     58 H21        -8.6779   21.4628  -14.1887 H           1 K26       0.0230
     59 H22        -8.0424   22.3097  -12.2623 H           1 K26       0.1883
     60 H23        -6.8667   22.3322   -9.2439 H           1 K26       0.0467
     61 H24        -7.0670   21.2403  -10.6299 H           1 K26       0.0467
     62 H25        -8.1583   21.0968   -9.2314 H           1 K26       0.0467
     63 H26       -11.5112   26.1942   -8.7597 H           1 K26       0.0453
     64 H27       -10.6193   27.5412   -8.1099 H           1 K26       0.0453
     65 H28        -8.1598   26.9675   -7.2239 H           1 K26       0.0530
     66 H29        -7.0966   25.5808   -5.5837 H           1 K26       0.0525
     67 H30        -7.3545   23.8573   -4.1793 H           1 K26       0.2458
     68 H31       -10.1713   22.7360   -5.9690 H           1 K26       0.0525
     69 H32       -11.2469   24.1112   -7.6238 H           1 K26       0.0530
@<TRIPOS>BOND
     1     1     2  ar
     2     1     7  ar
     3     2     3  ar
     4     3     4   1
     5     3     5  ar
     6     5     6  ar
     7     6     7  ar
     8     7     8   1
     9     8     9   1
    10     9    10   1
    11     9    14   1
    12    10    11  ar
    13    10    12  ar
    14    10    13  ar
    15    14    15  am
    16    15    16   2
    17    15    17   1
    18    17    18   1
    19    17    30   1
    20    18    19  am
    21    19    20   2
    22    19    21   1
    23    21    22   1
    24    21    26   1
    25    22    23   1
    26    22    24   1
    27    24    25   1
    28    26    27  am
    29    27    28   1
    30    27    29   2
    31    30    31   1
    32    31    32  ar
    33    31    37  ar
    34    32    33  ar
    35    33    34  ar
    36    34    35   1
    37    34    36  ar
    38    36    37  ar
    39     1    38   1
    40     2    39   1
    41     4    40   1
    42     5    41   1
    43     6    42   1
    44     8    43   1
    45     8    44   1
    46     9    45   1
    47    14    46   1
    48    17    47   1
    49    18    48   1
    50    21    49   1
    51    22    50   1
    52    23    51   1
    53    23    52   1
    54    23    53   1
    55    24    54   1
    56    24    55   1
    57    25    56   1
    58    25    57   1
    59    25    58   1
    60    26    59   1
    61    28    60   1
    62    28    61   1
    63    28    62   1
    64    30    63   1
    65    30    64   1
    66    32    65   1
    67    33    66   1
    68    35    67   1
    69    36    68   1
    70    37    69   1
@<TRIPOS>SUBSTRUCTURE
     1  K26      1

