@<TRIPOS>MOLECULE
2xhm_ligand_067
    69    70
SMALL
GAST_HUCK
****
This file was generated by PARSER (from files_GN.cpp)

@<TRIPOS>ATOM
      1 CAR        -7.0353   22.9535  -18.4475 C.ar        1 K26      -0.0686
      2 CAN        -5.8392   23.3954  -19.0482 C.ar        1 K26      -0.0398
      3 CBD        -5.5318   24.7693  -19.0885 C.ar        1 K26       0.0805
      4 OAI        -4.3915   25.2133  -19.6726 O.3         1 K26      -0.3376
      5 CAO        -6.4236   25.6971  -18.5234 C.ar        1 K26      -0.0398
      6 CAS        -7.6200   25.2569  -17.9304 C.ar        1 K26      -0.0686
      7 CBF        -7.9405   23.8780  -17.8781 C.ar        1 K26      -0.0501
      8 CAV        -9.1774   23.4085  -17.1874 C.3         1 K26       0.0145
      9 CBI        -9.0600   22.8605  -15.7125 C.3         1 K26       0.1207
     10 PBK        -7.6448   23.1233  -14.8710 P.3         1 K26       0.0863
     11 OAJ        -7.8464   23.2915  -13.4396 O.co2       1 K26      -0.5606
     12 OAK        -6.7264   22.0170  -15.0311 O.co2       1 K26      -0.5606
     13 OAG        -6.9431   24.3231  -15.2780 O.co2       1 K26      -0.5606
     14 NAY       -10.1540   23.3985  -14.9364 N.am        1 K26      -0.2653
     15 C         -10.9894   22.7584  -14.1311 C.2         1 K26       0.2049
     16 O         -10.8757   21.5461  -13.9699 O.2         1 K26      -0.3943
     17 CA        -12.0718   23.4722  -13.4499 C.3         1 K26       0.1389
     18 N         -12.6182   22.7171  -12.3526 N.am        1 K26      -0.2621
     19 CBB       -13.8724   22.6904  -11.9142 C.2         1 K26       0.2043
     20 OAF       -14.7352   23.3043  -12.5260 O.2         1 K26      -0.3944
     21 CBJ       -14.1672   22.0939  -10.6046 C.3         1 K26       0.1334
     22 CBG       -15.6781   21.7634  -10.2848 C.3         1 K26      -0.0037
     23 CAC       -15.8029   21.0872   -8.8862 C.3         1 K26      -0.0582
     24 CAT       -16.6628   22.9791  -10.4557 C.3         1 K26      -0.0491
     25 CAA       -18.0027   22.9536   -9.6780 C.3         1 K26      -0.0648
     26 NAX       -13.6257   22.9282   -9.5596 N.am        1 K26      -0.2656
     27 CAZ       -12.3422   23.1357   -9.2698 C.2         1 K26       0.1751
     28 CAB       -12.0137   24.0463   -8.2002 C.3         1 K26       0.0258
     29 OAD       -11.4284   22.6067   -9.9102 O.2         1 K26      -0.3972
     30 CB        -11.7106   24.8971  -12.9035 C.3         1 K26       0.0163
     31 CG        -10.6059   25.0845  -11.9045 C.ar        1 K26      -0.0493
     32 CD1       -10.4337   26.3670  -11.3179 C.ar        1 K26      -0.0685
     33 CE1        -9.4383   26.5935  -10.3510 C.ar        1 K26      -0.0398
     34 CZ         -8.5906   25.5486   -9.9471 C.ar        1 K26       0.0805
     35 OH         -7.6477   25.7828   -9.0018 O.3         1 K26      -0.3376
     36 CE2        -8.7223   24.2788  -10.5421 C.ar        1 K26      -0.0398
     37 CD2        -9.7447   24.0431  -11.4777 C.ar        1 K26      -0.0685
     38 H1         -7.2315   21.9501  -18.4159 H           1 K26       0.0530
     39 H2         -5.1897   22.7160  -19.4497 H           1 K26       0.0525
     40 H3         -4.1165   24.5102  -20.2969 H           1 K26       0.2458
     41 H4         -6.2051   26.6971  -18.5403 H           1 K26       0.0525
     42 H5         -8.2432   25.9469  -17.5029 H           1 K26       0.0530
     43 H6         -9.6233   22.6260  -17.8063 H           1 K26       0.0442
     44 H7         -9.9060   24.2267  -17.2230 H           1 K26       0.0442
     45 H8         -9.1575   21.7715  -15.7692 H           1 K26       0.0771
     46 H9        -10.2700   24.3636  -15.0062 H           1 K26       0.1870
     47 H10       -12.8375   23.6242  -14.2143 H           1 K26       0.0821
     48 H11       -11.9724   22.2710  -11.7870 H           1 K26       0.1885
     49 H12       -13.6412   21.1341  -10.5845 H           1 K26       0.0803
     50 H13       -15.9886   21.0060  -11.0051 H           1 K26       0.0345
     51 H14       -16.7928   20.6458   -8.7591 H           1 K26       0.0235
     52 H15       -15.6404   21.8095   -8.0836 H           1 K26       0.0235
     53 H16       -15.0750   20.2856   -8.7749 H           1 K26       0.0235
     54 H17       -16.9408   23.0542  -11.5125 H           1 K26       0.0267
     55 H18       -16.1568   23.9163  -10.1931 H           1 K26       0.0267
     56 H19       -18.6225   23.7983   -9.9857 H           1 K26       0.0230
     57 H20       -17.8196   23.0401   -8.6050 H           1 K26       0.0230
     58 H21       -18.5444   22.0300   -9.8818 H           1 K26       0.0230
     59 H22       -14.2611   23.3416   -8.9516 H           1 K26       0.1883
     60 H23       -10.9350   24.2211   -8.1328 H           1 K26       0.0467
     61 H24       -12.3469   23.6307   -7.2476 H           1 K26       0.0467
     62 H25       -12.5075   25.0107   -8.3585 H           1 K26       0.0467
     63 H26       -12.6314   25.2832  -12.4455 H           1 K26       0.0453
     64 H27       -11.4979   25.5652  -13.7442 H           1 K26       0.0453
     65 H28       -11.0459   27.1436  -11.5860 H           1 K26       0.0530
     66 H29        -9.3479   27.5210   -9.9233 H           1 K26       0.0525
     67 H30        -7.6597   24.9895   -8.4252 H           1 K26       0.2458
     68 H31        -8.0995   23.5175  -10.2708 H           1 K26       0.0525
     69 H32        -9.8098   23.1093  -11.8796 H           1 K26       0.0530
@<TRIPOS>BOND
     1     1     2  ar
     2     1     7  ar
     3     2     3  ar
     4     3     4   1
     5     3     5  ar
     6     5     6  ar
     7     6     7  ar
     8     7     8   1
     9     8     9   1
    10     9    10   1
    11     9    14   1
    12    10    11  ar
    13    10    12  ar
    14    10    13  ar
    15    14    15  am
    16    15    16   2
    17    15    17   1
    18    17    18   1
    19    17    30   1
    20    18    19  am
    21    19    20   2
    22    19    21   1
    23    21    22   1
    24    21    26   1
    25    22    23   1
    26    22    24   1
    27    24    25   1
    28    26    27  am
    29    27    28   1
    30    27    29   2
    31    30    31   1
    32    31    32  ar
    33    31    37  ar
    34    32    33  ar
    35    33    34  ar
    36    34    35   1
    37    34    36  ar
    38    36    37  ar
    39     1    38   1
    40     2    39   1
    41     4    40   1
    42     5    41   1
    43     6    42   1
    44     8    43   1
    45     8    44   1
    46     9    45   1
    47    14    46   1
    48    17    47   1
    49    18    48   1
    50    21    49   1
    51    22    50   1
    52    23    51   1
    53    23    52   1
    54    23    53   1
    55    24    54   1
    56    24    55   1
    57    25    56   1
    58    25    57   1
    59    25    58   1
    60    26    59   1
    61    28    60   1
    62    28    61   1
    63    28    62   1
    64    30    63   1
    65    30    64   1
    66    32    65   1
    67    33    66   1
    68    35    67   1
    69    36    68   1
    70    37    69   1
@<TRIPOS>SUBSTRUCTURE
     1  K26      1

