@<TRIPOS>MOLECULE
2xhm_ligand_020
    69    70
SMALL
GAST_HUCK
****
This file was generated by PARSER (from files_GN.cpp)

@<TRIPOS>ATOM
      1 CAR       -10.5944   24.4909   -8.7188 C.ar        1 K26      -0.0686
      2 CAN        -9.4118   25.2285   -8.9107 C.ar        1 K26      -0.0398
      3 CBD        -9.3940   26.3102   -9.8073 C.ar        1 K26       0.0805
      4 OAI        -8.2571   27.0259   -9.9763 O.3         1 K26      -0.3376
      5 CAO       -10.5587   26.6467  -10.5216 C.ar        1 K26      -0.0398
      6 CAS       -11.7458   25.9170  -10.3178 C.ar        1 K26      -0.0686
      7 CBF       -11.7791   24.8263   -9.4156 C.ar        1 K26      -0.0501
      8 CAV       -13.0567   24.1005   -9.1492 C.3         1 K26       0.0145
      9 CBI       -13.8519   23.6102  -10.4057 C.3         1 K26       0.1207
     10 PBK       -13.0583   22.4354  -11.3072 P.3         1 K26       0.0863
     11 OAJ       -12.0763   22.9971  -12.2024 O.co2       1 K26      -0.5606
     12 OAK       -12.4236   21.4268  -10.4946 O.co2       1 K26      -0.5606
     13 OAG       -14.0106   21.7670  -12.1565 O.co2       1 K26      -0.5606
     14 NAY       -15.1542   23.1782   -9.9579 N.am        1 K26      -0.2653
     15 C         -16.1459   22.6517  -10.6730 C.2         1 K26       0.2049
     16 O         -15.9633   22.4228  -11.8677 O.2         1 K26      -0.3943
     17 CA        -17.4392   22.3778  -10.0307 C.3         1 K26       0.1389
     18 N         -18.4458   22.0758  -11.0272 N.am        1 K26      -0.2621
     19 CBB       -19.6836   21.6057  -10.8849 C.2         1 K26       0.2043
     20 OAF       -20.1060   21.2047   -9.8122 O.2         1 K26      -0.3944
     21 CBJ       -20.5615   21.4575  -12.0491 C.3         1 K26       0.1334
     22 CBG       -21.8968   22.2956  -11.9298 C.3         1 K26      -0.0037
     23 CAC       -23.0875   21.5119  -11.2908 C.3         1 K26      -0.0582
     24 CAT       -21.7578   23.6811  -11.2063 C.3         1 K26      -0.0491
     25 CAA       -20.8637   24.7243  -11.9202 C.3         1 K26      -0.0648
     26 NAX       -20.8635   20.0903  -12.4233 N.am        1 K26      -0.2656
     27 CAZ       -20.5394   18.9352  -11.8452 C.2         1 K26       0.1751
     28 CAB       -21.0768   17.7006  -12.3811 C.3         1 K26       0.0258
     29 OAD       -19.8055   18.8679  -10.8662 O.2         1 K26      -0.3972
     30 CB        -17.3194   21.3062   -8.8792 C.3         1 K26       0.0163
     31 CG        -17.8437   21.6871   -7.5233 C.ar        1 K26      -0.0493
     32 CD1       -17.1620   21.2299   -6.3669 C.ar        1 K26      -0.0685
     33 CE1       -17.6557   21.4864   -5.0762 C.ar        1 K26      -0.0398
     34 CZ        -18.8553   22.1959   -4.9056 C.ar        1 K26       0.0805
     35 OH        -19.3380   22.4269   -3.6623 O.3         1 K26      -0.3376
     36 CE2       -19.5517   22.6624   -6.0351 C.ar        1 K26      -0.0398
     37 CD2       -19.0465   22.4142   -7.3249 C.ar        1 K26      -0.0685
     38 H1        -10.5839   23.7118   -8.0588 H           1 K26       0.0530
     39 H2         -8.5684   24.9828   -8.3884 H           1 K26       0.0525
     40 H3         -7.8454   26.6559  -10.7856 H           1 K26       0.2458
     41 H4        -10.5500   27.4331  -11.1745 H           1 K26       0.0525
     42 H5        -12.5882   26.1931  -10.8268 H           1 K26       0.0530
     43 H6        -13.6908   24.7907   -8.5838 H           1 K26       0.0442
     44 H7        -12.8795   23.2440   -8.4882 H           1 K26       0.0442
     45 H8        -13.9951   24.4733  -11.0577 H           1 K26       0.0771
     46 H9        -15.3512   23.3425   -9.0226 H           1 K26       0.1870
     47 H10       -17.7238   23.3363   -9.5966 H           1 K26       0.0821
     48 H11       -18.1936   22.2830  -11.9394 H           1 K26       0.1885
     49 H12       -20.0340   21.8568  -12.9195 H           1 K26       0.0803
     50 H13       -22.2161   22.5196  -12.9521 H           1 K26       0.0345
     51 H14       -23.9939   22.1220  -11.3007 H           1 K26       0.0235
     52 H15       -22.8737   21.2376  -10.2562 H           1 K26       0.0235
     53 H16       -23.3020   20.6044  -11.8565 H           1 K26       0.0235
     54 H17       -21.3722   23.5366  -10.1922 H           1 K26       0.0267
     55 H18       -22.7483   24.1349  -11.1104 H           1 K26       0.0267
     56 H19       -20.8756   25.6645  -11.3599 H           1 K26       0.0230
     57 H20       -21.2338   24.9191  -12.9298 H           1 K26       0.0230
     58 H21       -19.8295   24.3780  -11.9794 H           1 K26       0.0230
     59 H22       -21.3953   19.9992  -13.2318 H           1 K26       0.1883
     60 H23       -20.7727   16.8343  -11.7858 H           1 K26       0.0467
     61 H24       -20.7249   17.5541  -13.4045 H           1 K26       0.0467
     62 H25       -22.1691   17.7428  -12.3853 H           1 K26       0.0467
     63 H26       -16.2699   21.0070   -8.7745 H           1 K26       0.0453
     64 H27       -17.8350   20.3924   -9.1777 H           1 K26       0.0453
     65 H28       -16.3028   20.6848   -6.4606 H           1 K26       0.0530
     66 H29       -17.1506   21.1426   -4.2575 H           1 K26       0.0525
     67 H30       -19.9904   21.7106   -3.5087 H           1 K26       0.2458
     68 H31       -20.4259   23.1820   -5.9241 H           1 K26       0.0525
     69 H32       -19.5734   22.7834   -8.1173 H           1 K26       0.0530
@<TRIPOS>BOND
     1     1     2  ar
     2     1     7  ar
     3     2     3  ar
     4     3     4   1
     5     3     5  ar
     6     5     6  ar
     7     6     7  ar
     8     7     8   1
     9     8     9   1
    10     9    10   1
    11     9    14   1
    12    10    11  ar
    13    10    12  ar
    14    10    13  ar
    15    14    15  am
    16    15    16   2
    17    15    17   1
    18    17    18   1
    19    17    30   1
    20    18    19  am
    21    19    20   2
    22    19    21   1
    23    21    22   1
    24    21    26   1
    25    22    23   1
    26    22    24   1
    27    24    25   1
    28    26    27  am
    29    27    28   1
    30    27    29   2
    31    30    31   1
    32    31    32  ar
    33    31    37  ar
    34    32    33  ar
    35    33    34  ar
    36    34    35   1
    37    34    36  ar
    38    36    37  ar
    39     1    38   1
    40     2    39   1
    41     4    40   1
    42     5    41   1
    43     6    42   1
    44     8    43   1
    45     8    44   1
    46     9    45   1
    47    14    46   1
    48    17    47   1
    49    18    48   1
    50    21    49   1
    51    22    50   1
    52    23    51   1
    53    23    52   1
    54    23    53   1
    55    24    54   1
    56    24    55   1
    57    25    56   1
    58    25    57   1
    59    25    58   1
    60    26    59   1
    61    28    60   1
    62    28    61   1
    63    28    62   1
    64    30    63   1
    65    30    64   1
    66    32    65   1
    67    33    66   1
    68    35    67   1
    69    36    68   1
    70    37    69   1
@<TRIPOS>SUBSTRUCTURE
     1  K26      1

