@<TRIPOS>MOLECULE
2xhm_ligand_051
    69    70
SMALL
GAST_HUCK
****
This file was generated by PARSER (from files_GN.cpp)

@<TRIPOS>ATOM
      1 CAR        -4.0047   24.5621  -11.9730 C.ar        1 K26      -0.0686
      2 CAN        -2.7702   24.0797  -12.4483 C.ar        1 K26      -0.0398
      3 CBD        -2.3048   24.4588  -13.7243 C.ar        1 K26       0.0805
      4 OAI        -1.1308   23.9936  -14.2173 O.3         1 K26      -0.3376
      5 CAO        -3.0731   25.3388  -14.5088 C.ar        1 K26      -0.0398
      6 CAS        -4.3023   25.8248  -14.0301 C.ar        1 K26      -0.0686
      7 CBF        -4.7871   25.4400  -12.7576 C.ar        1 K26      -0.0501
      8 CAV        -6.1167   25.9214  -12.2717 C.3         1 K26       0.0145
      9 CBI        -7.3808   25.0129  -12.5004 C.3         1 K26       0.1207
     10 PBK        -7.2423   23.6879  -13.5187 P.3         1 K26       0.0863
     11 OAJ        -6.8068   24.0900  -14.8280 O.co2       1 K26      -0.5606
     12 OAK        -6.3143   22.7061  -13.0170 O.co2       1 K26      -0.5606
     13 OAG        -8.5149   23.0396  -13.6881 O.co2       1 K26      -0.5606
     14 NAY        -7.8864   24.5308  -11.2407 N.am        1 K26      -0.2653
     15 C          -9.0818   24.7613  -10.7006 C.2         1 K26       0.2049
     16 O          -9.9053   25.4739  -11.2628 O.2         1 K26      -0.3943
     17 CA         -9.4028   24.1374   -9.4181 C.3         1 K26       0.1389
     18 N          -8.5874   24.7588   -8.4033 N.am        1 K26      -0.2621
     19 CBB        -7.4208   24.3133   -7.9400 C.2         1 K26       0.2043
     20 OAF        -6.9321   23.2938   -8.4178 O.2         1 K26      -0.3944
     21 CBJ        -6.6887   24.9900   -6.8625 C.3         1 K26       0.1334
     22 CBG        -7.4158   25.1142   -5.4659 C.3         1 K26      -0.0037
     23 CAC        -8.4869   24.0049   -5.2125 C.3         1 K26      -0.0582
     24 CAT        -6.4248   25.1285   -4.2481 C.3         1 K26      -0.0491
     25 CAA        -5.3644   26.2512   -4.2418 C.3         1 K26      -0.0648
     26 NAX        -6.1231   26.2249   -7.3432 N.am        1 K26      -0.2656
     27 CAZ        -6.7337   27.3557   -7.6793 C.2         1 K26       0.1751
     28 CAB        -5.9329   28.4502   -8.1772 C.3         1 K26       0.0258
     29 OAD        -7.9451   27.5026   -7.5814 O.2         1 K26      -0.3972
     30 CB        -10.9091   24.1917   -8.9817 C.3         1 K26       0.0163
     31 CG        -11.9298   23.4464   -9.7849 C.ar        1 K26      -0.0493
     32 CD1       -11.6075   22.4866  -10.7789 C.ar        1 K26      -0.0685
     33 CE1       -12.6159   21.7687  -11.4483 C.ar        1 K26      -0.0398
     34 CZ        -13.9671   22.0021  -11.1474 C.ar        1 K26       0.0805
     35 OH        -14.9250   21.2781  -11.7698 O.3         1 K26      -0.3376
     36 CE2       -14.3132   22.9674  -10.1880 C.ar        1 K26      -0.0398
     37 CD2       -13.3027   23.6735   -9.5073 C.ar        1 K26      -0.0685
     38 H1         -4.3301   24.2648  -11.0498 H           1 K26       0.0530
     39 H2         -2.2187   23.4409  -11.8717 H           1 K26       0.0525
     40 H3         -0.6494   23.6098  -13.4550 H           1 K26       0.2458
     41 H4         -2.7435   25.6148  -15.4368 H           1 K26       0.0525
     42 H5         -4.8488   26.4539  -14.6262 H           1 K26       0.0530
     43 H6         -6.3132   26.8903  -12.7381 H           1 K26       0.0442
     44 H7         -6.0169   26.1551  -11.2075 H           1 K26       0.0442
     45 H8         -8.1339   25.6434  -12.9824 H           1 K26       0.0771
     46 H9         -7.2868   23.9558  -10.7359 H           1 K26       0.1870
     47 H10        -9.1512   23.0752   -9.4937 H           1 K26       0.0821
     48 H11        -8.9230   25.5791   -8.0112 H           1 K26       0.1885
     49 H12        -5.8067   24.3688   -6.6700 H           1 K26       0.0803
     50 H13        -7.9616   26.0593   -5.4456 H           1 K26       0.0345
     51 H14        -8.8574   24.0381   -4.1885 H           1 K26       0.0235
     52 H15        -8.0664   23.0125   -5.3966 H           1 K26       0.0235
     53 H16        -9.3464   24.1488   -5.8698 H           1 K26       0.0235
     54 H17        -5.9076   24.1661   -4.1928 H           1 K26       0.0267
     55 H18        -7.0033   25.2375   -3.3254 H           1 K26       0.0267
     56 H19        -4.8241   26.2360   -3.2920 H           1 K26       0.0230
     57 H20        -5.8401   27.2249   -4.3564 H           1 K26       0.0230
     58 H21        -4.6398   26.1054   -5.0447 H           1 K26       0.0230
     59 H22        -5.1563   26.2300   -7.4368 H           1 K26       0.1883
     60 H23        -6.5435   29.3308   -8.3908 H           1 K26       0.0467
     61 H24        -5.4354   28.1469   -9.1009 H           1 K26       0.0467
     62 H25        -5.1752   28.7258   -7.4386 H           1 K26       0.0467
     63 H26       -11.1996   25.2454   -8.9322 H           1 K26       0.0453
     64 H27       -10.9754   23.7958   -7.9668 H           1 K26       0.0453
     65 H28       -10.6355   22.2870  -11.0117 H           1 K26       0.0530
     66 H29       -12.3641   21.0640  -12.1473 H           1 K26       0.0525
     67 H30       -14.8949   20.4039  -11.3178 H           1 K26       0.2458
     68 H31       -15.2961   23.1470   -9.9717 H           1 K26       0.0525
     69 H32       -13.5775   24.3545   -8.7987 H           1 K26       0.0530
@<TRIPOS>BOND
     1     1     2  ar
     2     1     7  ar
     3     2     3  ar
     4     3     4   1
     5     3     5  ar
     6     5     6  ar
     7     6     7  ar
     8     7     8   1
     9     8     9   1
    10     9    10   1
    11     9    14   1
    12    10    11  ar
    13    10    12  ar
    14    10    13  ar
    15    14    15  am
    16    15    16   2
    17    15    17   1
    18    17    18   1
    19    17    30   1
    20    18    19  am
    21    19    20   2
    22    19    21   1
    23    21    22   1
    24    21    26   1
    25    22    23   1
    26    22    24   1
    27    24    25   1
    28    26    27  am
    29    27    28   1
    30    27    29   2
    31    30    31   1
    32    31    32  ar
    33    31    37  ar
    34    32    33  ar
    35    33    34  ar
    36    34    35   1
    37    34    36  ar
    38    36    37  ar
    39     1    38   1
    40     2    39   1
    41     4    40   1
    42     5    41   1
    43     6    42   1
    44     8    43   1
    45     8    44   1
    46     9    45   1
    47    14    46   1
    48    17    47   1
    49    18    48   1
    50    21    49   1
    51    22    50   1
    52    23    51   1
    53    23    52   1
    54    23    53   1
    55    24    54   1
    56    24    55   1
    57    25    56   1
    58    25    57   1
    59    25    58   1
    60    26    59   1
    61    28    60   1
    62    28    61   1
    63    28    62   1
    64    30    63   1
    65    30    64   1
    66    32    65   1
    67    33    66   1
    68    35    67   1
    69    36    68   1
    70    37    69   1
@<TRIPOS>SUBSTRUCTURE
     1  K26      1

