@<TRIPOS>MOLECULE
2xhm_ligand_018
    69    70
SMALL
GAST_HUCK
****
This file was generated by PARSER (from files_GN.cpp)

@<TRIPOS>ATOM
      1 CAR       -21.4569   24.1781  -12.4879 C.ar        1 K26      -0.0686
      2 CAN       -21.2093   24.0478  -13.8668 C.ar        1 K26      -0.0398
      3 CBD       -20.7963   22.8107  -14.4011 C.ar        1 K26       0.0805
      4 OAI       -20.4670   22.7080  -15.7130 O.3         1 K26      -0.3376
      5 CAO       -20.7260   21.6801  -13.5664 C.ar        1 K26      -0.0398
      6 CAS       -21.0127   21.7979  -12.1951 C.ar        1 K26      -0.0686
      7 CBF       -21.3401   23.0566  -11.6312 C.ar        1 K26      -0.0501
      8 CAV       -21.5263   23.2057  -10.1600 C.3         1 K26       0.0145
      9 CBI       -20.2023   23.4243   -9.3408 C.3         1 K26       0.1207
     10 PBK       -20.5027   23.5778   -7.7087 P.3         1 K26       0.0863
     11 OAJ       -19.5553   22.8769   -6.8650 O.co2       1 K26      -0.5606
     12 OAK       -20.3946   24.9665   -7.3167 O.co2       1 K26      -0.5606
     13 OAG       -21.8140   23.1389   -7.2867 O.co2       1 K26      -0.5606
     14 NAY       -19.2543   22.3578   -9.5205 N.am        1 K26      -0.2653
     15 C         -18.4810   22.1148  -10.5764 C.2         1 K26       0.2049
     16 O         -18.5078   22.8974  -11.5196 O.2         1 K26      -0.3943
     17 CA        -17.6704   20.8961  -10.7095 C.3         1 K26       0.1389
     18 N         -16.2470   21.1591  -10.5869 N.am        1 K26      -0.2621
     19 CBB       -15.4996   22.0880  -11.1802 C.2         1 K26       0.2043
     20 OAF       -16.0147   22.8983  -11.9502 O.2         1 K26      -0.3944
     21 CBJ       -14.0609   22.1698  -10.9105 C.3         1 K26       0.1334
     22 CBG       -13.7193   23.1496   -9.7232 C.3         1 K26      -0.0037
     23 CAC       -12.2217   23.0321   -9.3067 C.3         1 K26      -0.0582
     24 CAT       -14.1314   24.6307  -10.0210 C.3         1 K26      -0.0491
     25 CAA       -13.4819   25.7192   -9.1302 C.3         1 K26      -0.0648
     26 NAX       -13.3161   22.5418  -12.0899 N.am        1 K26      -0.2656
     27 CAZ       -12.0606   22.2519  -12.3884 C.2         1 K26       0.1751
     28 CAB       -11.4794   22.8463  -13.5674 C.3         1 K26       0.0258
     29 OAD       -11.3484   21.5776  -11.6455 O.2         1 K26      -0.3972
     30 CB        -18.0135   19.6905   -9.7535 C.3         1 K26       0.0163
     31 CG        -19.4499   19.4883   -9.3885 C.ar        1 K26      -0.0493
     32 CD1       -19.9036   19.7868   -8.0755 C.ar        1 K26      -0.0685
     33 CE1       -21.2731   19.7438   -7.7614 C.ar        1 K26      -0.0398
     34 CZ        -22.2061   19.3165   -8.7189 C.ar        1 K26       0.0805
     35 OH        -23.5362   19.3446   -8.4315 O.3         1 K26      -0.3376
     36 CE2       -21.7566   18.9293   -9.9998 C.ar        1 K26      -0.0398
     37 CD2       -20.3912   19.0417  -10.3392 C.ar        1 K26      -0.0685
     38 H1        -21.7042   25.0918  -12.1112 H           1 K26       0.0530
     39 H2        -21.3034   24.8596  -14.4779 H           1 K26       0.0525
     40 H3        -19.5233   22.4216  -15.7073 H           1 K26       0.2458
     41 H4        -20.4451   20.7757  -13.9490 H           1 K26       0.0525
     42 H5        -20.9287   20.9616  -11.5896 H           1 K26       0.0530
     43 H6        -22.0515   22.3203   -9.7766 H           1 K26       0.0442
     44 H7        -22.1975   24.0567   -9.9940 H           1 K26       0.0442
     45 H8        -19.7411   24.3604   -9.6751 H           1 K26       0.0771
     46 H9        -19.1429   21.7585   -8.7731 H           1 K26       0.1870
     47 H10       -17.8506   20.5249  -11.7216 H           1 K26       0.0821
     48 H11       -15.7616   20.5013  -10.0704 H           1 K26       0.1885
     49 H12       -13.7555   21.1593  -10.6095 H           1 K26       0.0803
     50 H13       -14.2992   22.8249   -8.8522 H           1 K26       0.0345
     51 H14       -12.0607   23.4726   -8.3185 H           1 K26       0.0235
     52 H15       -11.5759   23.5403  -10.0262 H           1 K26       0.0235
     53 H16       -11.9171   21.9882   -9.2502 H           1 K26       0.0235
     54 H17       -15.2153   24.7161   -9.9007 H           1 K26       0.0267
     55 H18       -13.8919   24.8831  -11.0558 H           1 K26       0.0267
     56 H19       -13.9320   26.6886   -9.3420 H           1 K26       0.0230
     57 H20       -12.4122   25.8005   -9.3407 H           1 K26       0.0230
     58 H21       -13.6228   25.4889   -8.0738 H           1 K26       0.0230
     59 H22       -13.7563   23.1535  -12.7062 H           1 K26       0.1883
     60 H23       -10.4186   22.5964  -13.6715 H           1 K26       0.0467
     61 H24       -11.5703   23.9364  -13.5184 H           1 K26       0.0467
     62 H25       -12.0064   22.4895  -14.4553 H           1 K26       0.0467
     63 H26       -17.4174   19.8038   -8.8401 H           1 K26       0.0453
     64 H27       -17.6749   18.7671  -10.2286 H           1 K26       0.0453
     65 H28       -19.2463   20.1187   -7.3648 H           1 K26       0.0530
     66 H29       -21.5837   20.0345   -6.8311 H           1 K26       0.0525
     67 H30       -23.6619   18.7381   -7.6661 H           1 K26       0.2458
     68 H31       -22.4259   18.6143  -10.7040 H           1 K26       0.0525
     69 H32       -20.0865   18.7883  -11.2803 H           1 K26       0.0530
@<TRIPOS>BOND
     1     1     2  ar
     2     1     7  ar
     3     2     3  ar
     4     3     4   1
     5     3     5  ar
     6     5     6  ar
     7     6     7  ar
     8     7     8   1
     9     8     9   1
    10     9    10   1
    11     9    14   1
    12    10    11  ar
    13    10    12  ar
    14    10    13  ar
    15    14    15  am
    16    15    16   2
    17    15    17   1
    18    17    18   1
    19    17    30   1
    20    18    19  am
    21    19    20   2
    22    19    21   1
    23    21    22   1
    24    21    26   1
    25    22    23   1
    26    22    24   1
    27    24    25   1
    28    26    27  am
    29    27    28   1
    30    27    29   2
    31    30    31   1
    32    31    32  ar
    33    31    37  ar
    34    32    33  ar
    35    33    34  ar
    36    34    35   1
    37    34    36  ar
    38    36    37  ar
    39     1    38   1
    40     2    39   1
    41     4    40   1
    42     5    41   1
    43     6    42   1
    44     8    43   1
    45     8    44   1
    46     9    45   1
    47    14    46   1
    48    17    47   1
    49    18    48   1
    50    21    49   1
    51    22    50   1
    52    23    51   1
    53    23    52   1
    54    23    53   1
    55    24    54   1
    56    24    55   1
    57    25    56   1
    58    25    57   1
    59    25    58   1
    60    26    59   1
    61    28    60   1
    62    28    61   1
    63    28    62   1
    64    30    63   1
    65    30    64   1
    66    32    65   1
    67    33    66   1
    68    35    67   1
    69    36    68   1
    70    37    69   1
@<TRIPOS>SUBSTRUCTURE
     1  K26      1

