@<TRIPOS>MOLECULE
2xhm_ligand_024
    69    70
SMALL
GAST_HUCK
****
This file was generated by PARSER (from files_GN.cpp)

@<TRIPOS>ATOM
      1 CAR       -18.8074   19.3369   -9.8339 C.ar        1 K26      -0.0686
      2 CAN       -20.0533   18.6960   -9.9696 C.ar        1 K26      -0.0398
      3 CBD       -21.1523   19.1165   -9.1967 C.ar        1 K26       0.0805
      4 OAI       -22.3512   18.4978   -9.3149 O.3         1 K26      -0.3376
      5 CAO       -20.9991   20.1783   -8.2899 C.ar        1 K26      -0.0398
      6 CAS       -19.7604   20.8383   -8.1769 C.ar        1 K26      -0.0686
      7 CBF       -18.6485   20.4391   -8.9580 C.ar        1 K26      -0.0501
      8 CAV       -17.3385   21.1549   -8.8559 C.3         1 K26       0.0145
      9 CBI       -16.6669   21.5896  -10.1999 C.3         1 K26       0.1207
     10 PBK       -17.6297   22.5569  -11.1700 P.3         1 K26       0.0863
     11 OAJ       -18.3726   23.5337  -10.4116 O.co2       1 K26      -0.5606
     12 OAK       -16.8486   23.2577  -12.1590 O.co2       1 K26      -0.5606
     13 OAG       -18.5800   21.7470  -11.8918 O.co2       1 K26      -0.5606
     14 NAY       -15.4049   22.2258   -9.9043 N.am        1 K26      -0.2653
     15 C         -14.3576   22.3436  -10.7206 C.2         1 K26       0.2049
     16 O         -14.4415   21.9545  -11.8803 O.2         1 K26      -0.3943
     17 CA        -13.0949   22.8786  -10.2093 C.3         1 K26       0.1389
     18 N         -11.9934   22.5204  -11.0712 N.am        1 K26      -0.2621
     19 CBB       -11.0920   23.2745  -11.6930 C.2         1 K26       0.2043
     20 OAF       -11.1594   24.4959  -11.6843 O.2         1 K26      -0.3944
     21 CBJ       -10.0553   22.6496  -12.5138 C.3         1 K26       0.1334
     22 CBG        -8.5876   23.1145  -12.1377 C.3         1 K26      -0.0037
     23 CAC        -8.1364   24.4005  -12.8898 C.3         1 K26      -0.0582
     24 CAT        -8.2789   23.2481  -10.5935 C.3         1 K26      -0.0491
     25 CAA        -7.5093   22.0685   -9.9522 C.3         1 K26      -0.0648
     26 NAX       -10.3006   22.7483  -13.9406 N.am        1 K26      -0.2656
     27 CAZ       -11.4074   23.0617  -14.6164 C.2         1 K26       0.1751
     28 CAB       -11.3057   23.2767  -16.0433 C.3         1 K26       0.0258
     29 OAD       -12.4942   23.2202  -14.0768 O.2         1 K26      -0.3972
     30 CB        -13.2357   24.3673   -9.7348 C.3         1 K26       0.0163
     31 CG        -12.0515   24.9134   -9.0063 C.ar        1 K26      -0.0493
     32 CD1       -11.4640   24.1997   -7.9312 C.ar        1 K26      -0.0685
     33 CE1       -10.3032   24.6737   -7.2968 C.ar        1 K26      -0.0398
     34 CZ         -9.7371   25.9033   -7.6864 C.ar        1 K26       0.0805
     35 OH         -8.6419   26.3840   -7.0526 O.3         1 K26      -0.3376
     36 CE2       -10.3343   26.6478   -8.7192 C.ar        1 K26      -0.0398
     37 CD2       -11.4857   26.1623   -9.3644 C.ar        1 K26      -0.0685
     38 H1        -18.0188   19.0032  -10.3927 H           1 K26       0.0530
     39 H2        -20.1582   17.9216  -10.6291 H           1 K26       0.0525
     40 H3        -22.7596   18.8903  -10.1158 H           1 K26       0.2458
     41 H4        -21.7909   20.4790   -7.7176 H           1 K26       0.0525
     42 H5        -19.6783   21.6132   -7.5162 H           1 K26       0.0530
     43 H6        -16.6484   20.4882   -8.3331 H           1 K26       0.0442
     44 H7        -17.4427   22.0458   -8.2279 H           1 K26       0.0442
     45 H8        -16.4542   20.6781  -10.7619 H           1 K26       0.0771
     46 H9        -15.2854   22.5520   -8.9964 H           1 K26       0.1870
     47 H10       -12.8846   22.2987   -9.3109 H           1 K26       0.0821
     48 H11       -11.9622   21.5670  -11.2664 H           1 K26       0.1885
     49 H12       -10.0691   21.5764  -12.3181 H           1 K26       0.0803
     50 H13        -7.9241   22.3355  -12.5270 H           1 K26       0.0345
     51 H14        -7.0790   24.5940  -12.6884 H           1 K26       0.0235
     52 H15        -8.7173   25.2671  -12.5691 H           1 K26       0.0235
     53 H16        -8.2427   24.2791  -13.9686 H           1 K26       0.0235
     54 H17        -9.1978   23.3868  -10.0261 H           1 K26       0.0267
     55 H18        -7.6747   24.1385  -10.3985 H           1 K26       0.0267
     56 H19        -7.3100   22.2899   -8.9014 H           1 K26       0.0230
     57 H20        -6.5527   21.9131  -10.4554 H           1 K26       0.0230
     58 H21        -8.0960   21.1525  -10.0073 H           1 K26       0.0230
     59 H22        -9.5308   22.5650  -14.5009 H           1 K26       0.1883
     60 H23       -12.2501   23.6158  -16.4789 H           1 K26       0.0467
     61 H24       -11.0099   22.3529  -16.5412 H           1 K26       0.0467
     62 H25       -10.5517   24.0411  -16.2378 H           1 K26       0.0467
     63 H26       -14.0814   24.4460   -9.0450 H           1 K26       0.0453
     64 H27       -13.4819   24.9905  -10.6023 H           1 K26       0.0453
     65 H28       -11.8696   23.3190   -7.6064 H           1 K26       0.0530
     66 H29        -9.8728   24.1264   -6.5485 H           1 K26       0.0525
     67 H30        -8.9555   26.5820   -6.1458 H           1 K26       0.2458
     68 H31        -9.9328   27.5458   -8.9992 H           1 K26       0.0525
     69 H32       -11.9059   26.7277  -10.1071 H           1 K26       0.0530
@<TRIPOS>BOND
     1     1     2  ar
     2     1     7  ar
     3     2     3  ar
     4     3     4   1
     5     3     5  ar
     6     5     6  ar
     7     6     7  ar
     8     7     8   1
     9     8     9   1
    10     9    10   1
    11     9    14   1
    12    10    11  ar
    13    10    12  ar
    14    10    13  ar
    15    14    15  am
    16    15    16   2
    17    15    17   1
    18    17    18   1
    19    17    30   1
    20    18    19  am
    21    19    20   2
    22    19    21   1
    23    21    22   1
    24    21    26   1
    25    22    23   1
    26    22    24   1
    27    24    25   1
    28    26    27  am
    29    27    28   1
    30    27    29   2
    31    30    31   1
    32    31    32  ar
    33    31    37  ar
    34    32    33  ar
    35    33    34  ar
    36    34    35   1
    37    34    36  ar
    38    36    37  ar
    39     1    38   1
    40     2    39   1
    41     4    40   1
    42     5    41   1
    43     6    42   1
    44     8    43   1
    45     8    44   1
    46     9    45   1
    47    14    46   1
    48    17    47   1
    49    18    48   1
    50    21    49   1
    51    22    50   1
    52    23    51   1
    53    23    52   1
    54    23    53   1
    55    24    54   1
    56    24    55   1
    57    25    56   1
    58    25    57   1
    59    25    58   1
    60    26    59   1
    61    28    60   1
    62    28    61   1
    63    28    62   1
    64    30    63   1
    65    30    64   1
    66    32    65   1
    67    33    66   1
    68    35    67   1
    69    36    68   1
    70    37    69   1
@<TRIPOS>SUBSTRUCTURE
     1  K26      1

