@<TRIPOS>MOLECULE
2xhm_ligand_022
    69    70
SMALL
GAST_HUCK
****
This file was generated by PARSER (from files_GN.cpp)

@<TRIPOS>ATOM
      1 CAR        -8.5138   28.0237  -14.5529 C.ar        1 K26      -0.0686
      2 CAN        -8.0205   28.4580  -15.7972 C.ar        1 K26      -0.0398
      3 CBD        -7.6752   27.5152  -16.7839 C.ar        1 K26       0.0805
      4 OAI        -7.2346   27.9364  -17.9902 O.3         1 K26      -0.3376
      5 CAO        -7.8070   26.1412  -16.5167 C.ar        1 K26      -0.0398
      6 CAS        -8.2983   25.7071  -15.2714 C.ar        1 K26      -0.0686
      7 CBF        -8.6691   26.6440  -14.2756 C.ar        1 K26      -0.0501
      8 CAV        -9.2017   26.1827  -12.9644 C.3         1 K26       0.0145
      9 CBI        -8.1461   25.4882  -12.0400 C.3         1 K26       0.1207
     10 PBK        -6.8444   26.4556  -11.6091 P.3         1 K26       0.0863
     11 OAJ        -5.9422   26.6396  -12.7212 O.co2       1 K26      -0.5606
     12 OAK        -7.2517   27.7579  -11.1428 O.co2       1 K26      -0.5606
     13 OAG        -6.0538   25.8411  -10.5682 O.co2       1 K26      -0.5606
     14 NAY        -8.7214   24.8499  -10.8807 N.am        1 K26      -0.2653
     15 C          -9.5340   25.3560   -9.9601 C.2         1 K26       0.2049
     16 O          -9.9817   26.4918  -10.0555 O.2         1 K26      -0.3943
     17 CA         -9.8232   24.6024   -8.7417 C.3         1 K26       0.1389
     18 N          -9.2032   25.2353   -7.6065 N.am        1 K26      -0.2621
     19 CBB        -7.8992   25.2579   -7.3300 C.2         1 K26       0.2043
     20 OAF        -7.0983   24.6762   -8.0599 O.2         1 K26      -0.3944
     21 CBJ        -7.4045   25.9351   -6.1370 C.3         1 K26       0.1334
     22 CBG        -6.9572   27.4228   -6.3959 C.3         1 K26      -0.0037
     23 CAC        -5.7994   27.5639   -7.4334 C.3         1 K26      -0.0582
     24 CAT        -8.1653   28.4108   -6.6185 C.3         1 K26      -0.0491
     25 CAA        -8.4418   28.9130   -8.0550 C.3         1 K26      -0.0648
     26 NAX        -6.3370   25.2122   -5.4948 N.am        1 K26      -0.2656
     27 CAZ        -6.4166   24.0559   -4.8490 C.2         1 K26       0.1751
     28 CAB        -5.2308   23.5823   -4.1812 C.3         1 K26       0.0258
     29 OAD        -7.4644   23.4285   -4.7513 O.2         1 K26      -0.3972
     30 CB        -11.3663   24.4612   -8.5000 C.3         1 K26       0.0163
     31 CG        -12.1951   23.6702   -9.4703 C.ar        1 K26      -0.0493
     32 CD1       -11.6572   22.6425  -10.2867 C.ar        1 K26      -0.0685
     33 CE1       -12.4931   21.8388  -11.0860 C.ar        1 K26      -0.0398
     34 CZ        -13.8853   22.0383  -11.0820 C.ar        1 K26       0.0805
     35 OH        -14.6861   21.2399  -11.8310 O.3         1 K26      -0.3376
     36 CE2       -14.4372   23.0524  -10.2825 C.ar        1 K26      -0.0398
     37 CD2       -13.6014   23.8561   -9.4816 C.ar        1 K26      -0.0685
     38 H1         -8.7649   28.7277  -13.8522 H           1 K26       0.0530
     39 H2         -7.9214   29.4591  -15.9848 H           1 K26       0.0525
     40 H3         -8.0325   27.9053  -18.5597 H           1 K26       0.2458
     41 H4         -7.5572   25.4545  -17.2293 H           1 K26       0.0525
     42 H5         -8.3990   24.7049  -15.0983 H           1 K26       0.0530
     43 H6        -10.0168   25.4861  -13.1610 H           1 K26       0.0442
     44 H7         -9.6419   27.0319  -12.4353 H           1 K26       0.0442
     45 H8         -7.7143   24.6619  -12.6108 H           1 K26       0.0771
     46 H9         -8.4370   23.9327  -10.7453 H           1 K26       0.1870
     47 H10        -9.4128   23.5918   -8.7982 H           1 K26       0.0821
     48 H11        -9.7990   25.6811   -6.9744 H           1 K26       0.1885
     49 H12        -8.2113   25.9697   -5.3977 H           1 K26       0.0803
     50 H13        -6.5010   27.7409   -5.4485 H           1 K26       0.0345
     51 H14        -5.4544   28.5985   -7.4743 H           1 K26       0.0235
     52 H15        -6.1291   27.2712   -8.4336 H           1 K26       0.0235
     53 H16        -4.9473   26.9375   -7.1625 H           1 K26       0.0235
     54 H17        -8.0095   29.3026   -6.0060 H           1 K26       0.0267
     55 H18        -9.0921   27.9574   -6.2554 H           1 K26       0.0267
     56 H19        -9.3772   29.4744   -8.0785 H           1 K26       0.0230
     57 H20        -8.5175   28.0777   -8.7458 H           1 K26       0.0230
     58 H21        -7.6366   29.5785   -8.3830 H           1 K26       0.0230
     59 H22        -5.4688   25.6445   -5.4808 H           1 K26       0.1883
     60 H23        -5.3878   22.5965   -3.7386 H           1 K26       0.0467
     61 H24        -4.9550   24.2835   -3.3920 H           1 K26       0.0467
     62 H25        -4.4052   23.5158   -4.8877 H           1 K26       0.0467
     63 H26       -11.7826   25.4720   -8.4129 H           1 K26       0.0453
     64 H27       -11.5063   23.9818   -7.5271 H           1 K26       0.0453
     65 H28       -10.6538   22.4520  -10.2949 H           1 K26       0.0530
     66 H29       -12.0856   21.0943  -11.6629 H           1 K26       0.0525
     67 H30       -14.6381   20.3688  -11.3764 H           1 K26       0.2458
     68 H31       -15.4488   23.1968  -10.2679 H           1 K26       0.0525
     69 H32       -14.0367   24.5666   -8.8868 H           1 K26       0.0530
@<TRIPOS>BOND
     1     1     2  ar
     2     1     7  ar
     3     2     3  ar
     4     3     4   1
     5     3     5  ar
     6     5     6  ar
     7     6     7  ar
     8     7     8   1
     9     8     9   1
    10     9    10   1
    11     9    14   1
    12    10    11  ar
    13    10    12  ar
    14    10    13  ar
    15    14    15  am
    16    15    16   2
    17    15    17   1
    18    17    18   1
    19    17    30   1
    20    18    19  am
    21    19    20   2
    22    19    21   1
    23    21    22   1
    24    21    26   1
    25    22    23   1
    26    22    24   1
    27    24    25   1
    28    26    27  am
    29    27    28   1
    30    27    29   2
    31    30    31   1
    32    31    32  ar
    33    31    37  ar
    34    32    33  ar
    35    33    34  ar
    36    34    35   1
    37    34    36  ar
    38    36    37  ar
    39     1    38   1
    40     2    39   1
    41     4    40   1
    42     5    41   1
    43     6    42   1
    44     8    43   1
    45     8    44   1
    46     9    45   1
    47    14    46   1
    48    17    47   1
    49    18    48   1
    50    21    49   1
    51    22    50   1
    52    23    51   1
    53    23    52   1
    54    23    53   1
    55    24    54   1
    56    24    55   1
    57    25    56   1
    58    25    57   1
    59    25    58   1
    60    26    59   1
    61    28    60   1
    62    28    61   1
    63    28    62   1
    64    30    63   1
    65    30    64   1
    66    32    65   1
    67    33    66   1
    68    35    67   1
    69    36    68   1
    70    37    69   1
@<TRIPOS>SUBSTRUCTURE
     1  K26      1

