@<TRIPOS>MOLECULE
2xhm_ligand_042
    69    70
SMALL
GAST_HUCK
****
This file was generated by PARSER (from files_GN.cpp)

@<TRIPOS>ATOM
      1 CAR       -12.2520   25.7159  -10.5226 C.ar        1 K26      -0.0686
      2 CAN       -11.1455   26.5659  -10.6565 C.ar        1 K26      -0.0398
      3 CBD       -10.2020   26.6782   -9.6105 C.ar        1 K26       0.0805
      4 OAI        -9.1857   27.5878   -9.7230 O.3         1 K26      -0.3376
      5 CAO       -10.3732   25.9037   -8.4438 C.ar        1 K26      -0.0398
      6 CAS       -11.4663   25.0361   -8.3215 C.ar        1 K26      -0.0686
      7 CBF       -12.4208   24.9243   -9.3653 C.ar        1 K26      -0.0501
      8 CAV       -13.6571   24.1243   -9.1620 C.3         1 K26       0.0145
      9 CBI       -14.2683   23.3754  -10.3996 C.3         1 K26       0.1207
     10 PBK       -13.4809   21.9577  -10.8000 P.3         1 K26       0.0863
     11 OAJ       -13.6110   20.9414   -9.7865 O.co2       1 K26      -0.5606
     12 OAK       -14.1016   21.4576  -12.0057 O.co2       1 K26      -0.5606
     13 OAG       -12.0847   22.1316  -11.1593 O.co2       1 K26      -0.5606
     14 NAY       -15.6569   23.1396  -10.0941 N.am        1 K26      -0.2653
     15 C         -16.6263   22.6596  -10.8692 C.2         1 K26       0.2049
     16 O         -16.3388   22.1589  -11.9549 O.2         1 K26      -0.3943
     17 CA        -18.0353   22.7165  -10.4982 C.3         1 K26       0.1389
     18 N         -18.5897   21.3858  -10.5514 N.am        1 K26      -0.2621
     19 CBB       -19.8750   21.0617  -10.4037 C.2         1 K26       0.2043
     20 OAF       -20.7037   21.9574  -10.3103 O.2         1 K26      -0.3944
     21 CBJ       -20.2930   19.6587  -10.2904 C.3         1 K26       0.1334
     22 CBG       -20.9407   19.0566  -11.5970 C.3         1 K26      -0.0037
     23 CAC       -20.9268   17.4973  -11.5394 C.3         1 K26      -0.0582
     24 CAT       -22.3722   19.5858  -11.9585 C.3         1 K26      -0.0491
     25 CAA       -22.7061   19.5560  -13.4651 C.3         1 K26      -0.0648
     26 NAX       -20.9975   19.3675   -9.0708 N.am        1 K26      -0.2656
     27 CAZ       -22.1962   19.7535   -8.6651 C.2         1 K26       0.1751
     28 CAB       -22.6700   19.2700   -7.3932 C.3         1 K26       0.0258
     29 OAD       -22.9277   20.4920   -9.3114 O.2         1 K26      -0.3972
     30 CB        -18.3602   23.4535   -9.1456 C.3         1 K26       0.0163
     31 CG        -18.4371   22.6442   -7.8887 C.ar        1 K26      -0.0493
     32 CD1       -17.5704   21.5524   -7.6188 C.ar        1 K26      -0.0685
     33 CE1       -17.6537   20.8392   -6.4115 C.ar        1 K26      -0.0398
     34 CZ        -18.6050   21.1965   -5.4417 C.ar        1 K26       0.0805
     35 OH        -18.6656   20.5080   -4.2804 O.3         1 K26      -0.3376
     36 CE2       -19.4786   22.2771   -5.6892 C.ar        1 K26      -0.0398
     37 CD2       -19.3901   22.9870   -6.8960 C.ar        1 K26      -0.0685
     38 H1        -12.9456   25.7012  -11.2686 H           1 K26       0.0530
     39 H2        -11.0420   27.1485  -11.4927 H           1 K26       0.0525
     40 H3         -8.3912   27.1332   -9.3628 H           1 K26       0.2458
     41 H4         -9.7139   26.0101   -7.6648 H           1 K26       0.0525
     42 H5        -11.5803   24.5185   -7.4543 H           1 K26       0.0530
     43 H6        -14.4076   24.8260   -8.7757 H           1 K26       0.0442
     44 H7        -13.5055   23.3832   -8.3699 H           1 K26       0.0442
     45 H8        -14.1958   24.0415  -11.2618 H           1 K26       0.0771
     46 H9        -15.9304   23.4969   -9.2352 H           1 K26       0.1870
     47 H10       -18.4961   23.3076  -11.2962 H           1 K26       0.0821
     48 H11       -17.9636   20.6492  -10.6578 H           1 K26       0.1885
     49 H12       -19.3570   19.0932  -10.1693 H           1 K26       0.0803
     50 H13       -20.2708   19.3376  -12.4236 H           1 K26       0.0345
     51 H14       -21.2903   17.0671  -12.4701 H           1 K26       0.0235
     52 H15       -21.5508   17.1303  -10.7232 H           1 K26       0.0235
     53 H16       -19.9133   17.1282  -11.3823 H           1 K26       0.0235
     54 H17       -22.4726   20.6250  -11.6619 H           1 K26       0.0267
     55 H18       -23.1286   19.0138  -11.4197 H           1 K26       0.0267
     56 H19       -23.7285   19.9069  -13.6242 H           1 K26       0.0230
     57 H20       -22.6198   18.5522  -13.8818 H           1 K26       0.0230
     58 H21       -22.0281   20.2255  -14.0001 H           1 K26       0.0230
     59 H22       -20.5478   18.7629   -8.4691 H           1 K26       0.1883
     60 H23       -23.6757   19.6393   -7.1632 H           1 K26       0.0467
     61 H24       -21.9940   19.5979   -6.5974 H           1 K26       0.0467
     62 H25       -22.7023   18.1763   -7.4036 H           1 K26       0.0467
     63 H26       -19.3220   23.9434   -9.2955 H           1 K26       0.0453
     64 H27       -17.6503   24.2659   -8.9785 H           1 K26       0.0453
     65 H28       -16.8713   21.2583   -8.2984 H           1 K26       0.0530
     66 H29       -17.0188   20.0537   -6.2403 H           1 K26       0.0525
     67 H30       -19.5886   20.1815   -4.2078 H           1 K26       0.2458
     68 H31       -20.1673   22.5487   -4.9844 H           1 K26       0.0525
     69 H32       -20.0219   23.7836   -7.0364 H           1 K26       0.0530
@<TRIPOS>BOND
     1     1     2  ar
     2     1     7  ar
     3     2     3  ar
     4     3     4   1
     5     3     5  ar
     6     5     6  ar
     7     6     7  ar
     8     7     8   1
     9     8     9   1
    10     9    10   1
    11     9    14   1
    12    10    11  ar
    13    10    12  ar
    14    10    13  ar
    15    14    15  am
    16    15    16   2
    17    15    17   1
    18    17    18   1
    19    17    30   1
    20    18    19  am
    21    19    20   2
    22    19    21   1
    23    21    22   1
    24    21    26   1
    25    22    23   1
    26    22    24   1
    27    24    25   1
    28    26    27  am
    29    27    28   1
    30    27    29   2
    31    30    31   1
    32    31    32  ar
    33    31    37  ar
    34    32    33  ar
    35    33    34  ar
    36    34    35   1
    37    34    36  ar
    38    36    37  ar
    39     1    38   1
    40     2    39   1
    41     4    40   1
    42     5    41   1
    43     6    42   1
    44     8    43   1
    45     8    44   1
    46     9    45   1
    47    14    46   1
    48    17    47   1
    49    18    48   1
    50    21    49   1
    51    22    50   1
    52    23    51   1
    53    23    52   1
    54    23    53   1
    55    24    54   1
    56    24    55   1
    57    25    56   1
    58    25    57   1
    59    25    58   1
    60    26    59   1
    61    28    60   1
    62    28    61   1
    63    28    62   1
    64    30    63   1
    65    30    64   1
    66    32    65   1
    67    33    66   1
    68    35    67   1
    69    36    68   1
    70    37    69   1
@<TRIPOS>SUBSTRUCTURE
     1  K26      1

