@<TRIPOS>MOLECULE
2xhm_ligand_034
    69    70
SMALL
GAST_HUCK
****
This file was generated by PARSER (from files_GN.cpp)

@<TRIPOS>ATOM
      1 CAR        -6.8860   25.3089  -16.5325 C.ar        1 K26      -0.0686
      2 CAN        -6.1146   25.9786  -17.4980 C.ar        1 K26      -0.0398
      3 CBD        -5.7785   25.3398  -18.7067 C.ar        1 K26       0.0805
      4 OAI        -4.9944   25.9622  -19.6253 O.3         1 K26      -0.3376
      5 CAO        -6.2592   24.0392  -18.9562 C.ar        1 K26      -0.0398
      6 CAS        -7.0277   23.3645  -17.9877 C.ar        1 K26      -0.0686
      7 CBF        -7.3314   23.9820  -16.7474 C.ar        1 K26      -0.0501
      8 CAV        -8.0509   23.2366  -15.6650 C.3         1 K26       0.0145
      9 CBI        -7.2116   22.6641  -14.4496 C.3         1 K26       0.1207
     10 PBK        -5.5468   22.8734  -14.4411 P.3         1 K26       0.0863
     11 OAJ        -5.1175   24.0994  -13.8084 O.co2       1 K26      -0.5606
     12 OAK        -4.8538   21.7878  -13.7834 O.co2       1 K26      -0.5606
     13 OAG        -4.9942   22.8691  -15.7777 O.co2       1 K26      -0.5606
     14 NAY        -7.7767   22.9962  -13.1606 N.am        1 K26      -0.2653
     15 C          -8.1201   24.1987  -12.7050 C.2         1 K26       0.2049
     16 O          -8.0247   25.1898  -13.4216 O.2         1 K26      -0.3943
     17 CA         -8.5601   24.4036  -11.3252 C.3         1 K26       0.1389
     18 N          -9.9680   24.1254  -11.1635 N.am        1 K26      -0.2621
     19 CBB       -10.9684   24.8275  -11.6976 C.2         1 K26       0.2043
     20 OAF       -10.7226   25.7497  -12.4690 O.2         1 K26      -0.3944
     21 CBJ       -12.3644   24.6344  -11.2962 C.3         1 K26       0.1334
     22 CBG       -12.8154   25.5416  -10.0841 C.3         1 K26      -0.0037
     23 CAC       -14.0110   24.9289   -9.2884 C.3         1 K26      -0.0582
     24 CAT       -11.7120   26.0869   -9.1124 C.3         1 K26      -0.0491
     25 CAA       -11.1785   25.1132   -8.0376 C.3         1 K26      -0.0648
     26 NAX       -12.6563   23.2328  -11.1188 N.am        1 K26      -0.2656
     27 CAZ       -13.6983   22.5691  -11.6121 C.2         1 K26       0.1751
     28 CAB       -13.8010   21.1511  -11.3820 C.3         1 K26       0.0258
     29 OAD       -14.6189   23.1331  -12.1932 O.2         1 K26      -0.3972
     30 CB         -7.6693   23.5921  -10.3173 C.3         1 K26       0.0163
     31 CG         -7.3763   24.2819   -9.0267 C.ar        1 K26      -0.0493
     32 CD1        -7.4784   23.6114   -7.7835 C.ar        1 K26      -0.0685
     33 CE1        -7.1426   24.2614   -6.5809 C.ar        1 K26      -0.0398
     34 CZ         -6.6830   25.5926   -6.6028 C.ar        1 K26       0.0805
     35 OH         -6.3446   26.2209   -5.4517 O.3         1 K26      -0.3376
     36 CE2        -6.5546   26.2664   -7.8308 C.ar        1 K26      -0.0398
     37 CD2        -6.8944   25.6129   -9.0300 C.ar        1 K26      -0.0685
     38 H1         -7.1139   25.7927  -15.6628 H           1 K26       0.0530
     39 H2         -5.7895   26.9293  -17.3068 H           1 K26       0.0525
     40 H3         -4.6894   26.7959  -19.2080 H           1 K26       0.2458
     41 H4         -6.0295   23.5773  -19.8380 H           1 K26       0.0525
     42 H5         -7.3346   22.4053  -18.1819 H           1 K26       0.0530
     43 H6         -8.5871   22.3955  -16.1216 H           1 K26       0.0442
     44 H7         -8.8421   23.8934  -15.2926 H           1 K26       0.0442
     45 H8         -7.3269   21.5761  -14.4997 H           1 K26       0.0771
     46 H9         -7.8722   22.2501  -12.5435 H           1 K26       0.1870
     47 H10        -8.4333   25.4649  -11.0813 H           1 K26       0.0821
     48 H11       -10.2071   23.4277  -10.5318 H           1 K26       0.1885
     49 H12       -12.9701   24.9824  -12.1428 H           1 K26       0.0803
     50 H13       -13.2245   26.4503  -10.5428 H           1 K26       0.0345
     51 H14       -14.3531   25.6125   -8.5066 H           1 K26       0.0235
     52 H15       -13.7253   23.9874   -8.8147 H           1 K26       0.0235
     53 H16       -14.8515   24.7308   -9.9560 H           1 K26       0.0235
     54 H17       -12.1118   26.9614   -8.5872 H           1 K26       0.0267
     55 H18       -10.8640   26.4484   -9.7002 H           1 K26       0.0267
     56 H19       -10.3443   25.5771   -7.5062 H           1 K26       0.0230
     57 H20       -10.8314   24.1873   -8.4915 H           1 K26       0.0230
     58 H21       -11.9584   24.8833   -7.3099 H           1 K26       0.0230
     59 H22       -12.0362   22.7182  -10.5804 H           1 K26       0.1883
     60 H23       -14.7395   20.7421  -11.7709 H           1 K26       0.0467
     61 H24       -13.7549   20.9484  -10.3097 H           1 K26       0.0467
     62 H25       -12.9727   20.6417  -11.8793 H           1 K26       0.0467
     63 H26        -6.6911   23.3865  -10.7610 H           1 K26       0.0453
     64 H27        -8.1299   22.6169  -10.1371 H           1 K26       0.0453
     65 H28        -7.7833   22.6372   -7.7424 H           1 K26       0.0530
     66 H29        -7.2210   23.7659   -5.6876 H           1 K26       0.0525
     67 H30        -7.1687   26.6684   -5.1654 H           1 K26       0.2458
     68 H31        -6.2125   27.2317   -7.8527 H           1 K26       0.0525
     69 H32        -6.7666   26.1107   -9.9142 H           1 K26       0.0530
@<TRIPOS>BOND
     1     1     2  ar
     2     1     7  ar
     3     2     3  ar
     4     3     4   1
     5     3     5  ar
     6     5     6  ar
     7     6     7  ar
     8     7     8   1
     9     8     9   1
    10     9    10   1
    11     9    14   1
    12    10    11  ar
    13    10    12  ar
    14    10    13  ar
    15    14    15  am
    16    15    16   2
    17    15    17   1
    18    17    18   1
    19    17    30   1
    20    18    19  am
    21    19    20   2
    22    19    21   1
    23    21    22   1
    24    21    26   1
    25    22    23   1
    26    22    24   1
    27    24    25   1
    28    26    27  am
    29    27    28   1
    30    27    29   2
    31    30    31   1
    32    31    32  ar
    33    31    37  ar
    34    32    33  ar
    35    33    34  ar
    36    34    35   1
    37    34    36  ar
    38    36    37  ar
    39     1    38   1
    40     2    39   1
    41     4    40   1
    42     5    41   1
    43     6    42   1
    44     8    43   1
    45     8    44   1
    46     9    45   1
    47    14    46   1
    48    17    47   1
    49    18    48   1
    50    21    49   1
    51    22    50   1
    52    23    51   1
    53    23    52   1
    54    23    53   1
    55    24    54   1
    56    24    55   1
    57    25    56   1
    58    25    57   1
    59    25    58   1
    60    26    59   1
    61    28    60   1
    62    28    61   1
    63    28    62   1
    64    30    63   1
    65    30    64   1
    66    32    65   1
    67    33    66   1
    68    35    67   1
    69    36    68   1
    70    37    69   1
@<TRIPOS>SUBSTRUCTURE
     1  K26      1

