@<TRIPOS>MOLECULE
2xhm_ligand_058
    69    70
SMALL
GAST_HUCK
****
This file was generated by PARSER (from files_GN.cpp)

@<TRIPOS>ATOM
      1 CAR       -12.1504   25.7372  -10.4609 C.ar        1 K26      -0.0686
      2 CAN       -10.9897   26.5119  -10.6403 C.ar        1 K26      -0.0398
      3 CBD        -9.8849   26.3495   -9.7784 C.ar        1 K26       0.0805
      4 OAI        -8.7625   27.1047   -9.9196 O.3         1 K26      -0.3376
      5 CAO        -9.9467   25.3858   -8.7517 C.ar        1 K26      -0.0398
      6 CAS       -11.1074   24.6134   -8.5716 C.ar        1 K26      -0.0686
      7 CBF       -12.2332   24.7877   -9.4128 C.ar        1 K26      -0.0501
      8 CAV       -13.5098   24.0692   -9.1509 C.3         1 K26       0.0145
      9 CBI       -14.1756   23.3769  -10.3867 C.3         1 K26       0.1207
     10 PBK       -13.5309   21.8824  -10.7694 P.3         1 K26       0.0863
     11 OAJ       -12.1133   21.9509  -11.0323 O.co2       1 K26      -0.5606
     12 OAK       -13.7708   20.9220   -9.7156 O.co2       1 K26      -0.5606
     13 OAG       -14.1841   21.4209  -11.9743 O.co2       1 K26      -0.5606
     14 NAY       -15.5930   23.2467  -10.1322 N.am        1 K26      -0.2653
     15 C         -16.5400   22.8867  -11.0021 C.2         1 K26       0.2049
     16 O         -16.1835   22.4165  -12.0900 O.2         1 K26      -0.3943
     17 CA        -17.9512   22.8278  -10.6229 C.3         1 K26       0.1389
     18 N         -18.2507   21.4731  -10.2192 N.am        1 K26      -0.2621
     19 CBB       -19.3521   20.7708  -10.5075 C.2         1 K26       0.2043
     20 OAF       -20.1573   21.2386  -11.3062 O.2         1 K26      -0.3944
     21 CBJ       -19.5495   19.4285   -9.9580 C.3         1 K26       0.1334
     22 CBG       -20.8912   18.7021  -10.4025 C.3         1 K26      -0.0037
     23 CAC       -22.1734   19.2619   -9.6966 C.3         1 K26      -0.0582
     24 CAT       -21.0486   18.5160  -11.9620 C.3         1 K26      -0.0491
     25 CAA       -22.4235   18.8237  -12.6188 C.3         1 K26      -0.0648
     26 NAX       -19.5000   19.3642   -8.5100 N.am        1 K26      -0.2656
     27 CAZ       -18.7779   20.0387   -7.6240 C.2         1 K26       0.1751
     28 CAB       -18.9896   19.7501   -6.2237 C.3         1 K26       0.0258
     29 OAD       -17.9681   20.9075   -7.9514 O.2         1 K26      -0.3972
     30 CB        -18.3453   23.9021   -9.5459 C.3         1 K26       0.0163
     31 CG        -19.6754   23.6465   -8.9302 C.ar        1 K26      -0.0493
     32 CD1       -20.8102   23.4371   -9.7438 C.ar        1 K26      -0.0685
     33 CE1       -22.0263   23.0105   -9.1847 C.ar        1 K26      -0.0398
     34 CZ        -22.1469   22.8423   -7.7928 C.ar        1 K26       0.0805
     35 OH        -23.3374   22.4574   -7.2684 O.3         1 K26      -0.3376
     36 CE2       -21.0416   23.1149   -6.9627 C.ar        1 K26      -0.0398
     37 CD2       -19.8131   23.5012   -7.5243 C.ar        1 K26      -0.0685
     38 H1        -12.9479   25.8954  -11.0785 H           1 K26       0.0530
     39 H2        -10.9568   27.2143  -11.3868 H           1 K26       0.0525
     40 H3         -9.0772   28.0242  -10.0659 H           1 K26       0.2458
     41 H4         -9.1478   25.2679   -8.1167 H           1 K26       0.0525
     42 H5        -11.1316   23.9357   -7.8081 H           1 K26       0.0530
     43 H6        -14.2038   24.8137   -8.7490 H           1 K26       0.0442
     44 H7        -13.3691   23.3269   -8.3610 H           1 K26       0.0442
     45 H8        -14.0193   24.0292  -11.2516 H           1 K26       0.0771
     46 H9        -15.8868   23.5249   -9.2455 H           1 K26       0.1870
     47 H10       -18.5271   23.0709  -11.5289 H           1 K26       0.0821
     48 H11       -17.5830   21.0415   -9.6786 H           1 K26       0.1885
     49 H12       -18.7240   18.8133  -10.3306 H           1 K26       0.0803
     50 H13       -20.7998   17.6813  -10.0121 H           1 K26       0.0345
     51 H14       -23.0527   18.6780   -9.9811 H           1 K26       0.0235
     52 H15       -22.3472   20.3051   -9.9610 H           1 K26       0.0235
     53 H16       -22.0968   19.2022   -8.6096 H           1 K26       0.0235
     54 H17       -20.8095   17.4776  -12.2217 H           1 K26       0.0267
     55 H18       -20.3102   19.1315  -12.4742 H           1 K26       0.0267
     56 H19       -22.3361   18.7669  -13.7027 H           1 K26       0.0230
     57 H20       -22.7675   19.8209  -12.3571 H           1 K26       0.0230
     58 H21       -23.1700   18.0938  -12.3036 H           1 K26       0.0230
     59 H22       -20.0358   18.6530   -8.1211 H           1 K26       0.1883
     60 H23       -18.3783   20.3979   -5.5889 H           1 K26       0.0467
     61 H24       -18.7330   18.7065   -6.0114 H           1 K26       0.0467
     62 H25       -20.0443   19.9165   -5.9736 H           1 K26       0.0467
     63 H26       -18.3582   24.8925  -10.0125 H           1 K26       0.0453
     64 H27       -17.5856   23.9424   -8.7652 H           1 K26       0.0453
     65 H28       -20.7455   23.5695  -10.7497 H           1 K26       0.0530
     66 H29       -22.8244   22.8319   -9.7918 H           1 K26       0.0525
     67 H30       -23.1523   22.1472   -6.3559 H           1 K26       0.2458
     68 H31       -21.1265   23.0133   -5.9436 H           1 K26       0.0525
     69 H32       -19.0118   23.6558   -6.9010 H           1 K26       0.0530
@<TRIPOS>BOND
     1     1     2  ar
     2     1     7  ar
     3     2     3  ar
     4     3     4   1
     5     3     5  ar
     6     5     6  ar
     7     6     7  ar
     8     7     8   1
     9     8     9   1
    10     9    10   1
    11     9    14   1
    12    10    11  ar
    13    10    12  ar
    14    10    13  ar
    15    14    15  am
    16    15    16   2
    17    15    17   1
    18    17    18   1
    19    17    30   1
    20    18    19  am
    21    19    20   2
    22    19    21   1
    23    21    22   1
    24    21    26   1
    25    22    23   1
    26    22    24   1
    27    24    25   1
    28    26    27  am
    29    27    28   1
    30    27    29   2
    31    30    31   1
    32    31    32  ar
    33    31    37  ar
    34    32    33  ar
    35    33    34  ar
    36    34    35   1
    37    34    36  ar
    38    36    37  ar
    39     1    38   1
    40     2    39   1
    41     4    40   1
    42     5    41   1
    43     6    42   1
    44     8    43   1
    45     8    44   1
    46     9    45   1
    47    14    46   1
    48    17    47   1
    49    18    48   1
    50    21    49   1
    51    22    50   1
    52    23    51   1
    53    23    52   1
    54    23    53   1
    55    24    54   1
    56    24    55   1
    57    25    56   1
    58    25    57   1
    59    25    58   1
    60    26    59   1
    61    28    60   1
    62    28    61   1
    63    28    62   1
    64    30    63   1
    65    30    64   1
    66    32    65   1
    67    33    66   1
    68    35    67   1
    69    36    68   1
    70    37    69   1
@<TRIPOS>SUBSTRUCTURE
     1  K26      1

