@<TRIPOS>MOLECULE
2xhm_ligand_004
    69    70
SMALL
GAST_HUCK
****
This file was generated by PARSER (from files_GN.cpp)

@<TRIPOS>ATOM
      1 CAR       -11.0429   22.6180  -11.2944 C.ar        1 K26      -0.0686
      2 CAN       -12.0881   21.8184  -11.7966 C.ar        1 K26      -0.0398
      3 CBD       -13.4089   22.0355  -11.3668 C.ar        1 K26       0.0805
      4 OAI       -14.4180   21.2929  -11.8781 O.3         1 K26      -0.3376
      5 CAO       -13.6784   23.0437  -10.4187 C.ar        1 K26      -0.0398
      6 CAS       -12.6297   23.8335   -9.9089 C.ar        1 K26      -0.0686
      7 CBF       -11.2968   23.6410  -10.3525 C.ar        1 K26      -0.0501
      8 CAV       -10.1644   24.4533   -9.8193 C.3         1 K26       0.0145
      9 CBI        -9.3564   25.2452  -10.9049 C.3         1 K26       0.1207
     10 PBK       -10.0112   26.7181  -11.3473 P.3         1 K26       0.0863
     11 OAJ       -10.0195   26.8725  -12.7832 O.co2       1 K26      -0.5606
     12 OAK       -11.3919   26.8566  -10.9482 O.co2       1 K26      -0.5606
     13 OAG        -9.3203   27.8637  -10.8035 O.co2       1 K26      -0.5606
     14 NAY        -8.0417   25.4654  -10.3789 N.am        1 K26      -0.2653
     15 C          -6.8679   25.1298  -10.9103 C.2         1 K26       0.2049
     16 O          -6.8292   24.7137  -12.0713 O.2         1 K26      -0.3943
     17 CA         -5.6084   25.3173  -10.1938 C.3         1 K26       0.1389
     18 N          -5.8282   25.5821   -8.7908 N.am        1 K26      -0.2621
     19 CBB        -5.2449   26.4903   -8.0255 C.2         1 K26       0.2043
     20 OAF        -4.3829   27.2294   -8.4961 O.2         1 K26      -0.3944
     21 CBJ        -5.6438   26.6776   -6.6192 C.3         1 K26       0.1334
     22 CBG        -5.6525   25.3303   -5.7730 C.3         1 K26      -0.0037
     23 CAC        -4.3950   25.2119   -4.8627 C.3         1 K26      -0.0582
     24 CAT        -6.9333   25.0500   -4.9055 C.3         1 K26      -0.0491
     25 CAA        -8.2419   24.8497   -5.6997 C.3         1 K26      -0.0648
     26 NAX        -6.8295   27.4767   -6.4014 N.am        1 K26      -0.2656
     27 CAZ        -7.6895   28.0077   -7.2571 C.2         1 K26       0.1751
     28 CAB        -8.7875   28.7894   -6.7214 C.3         1 K26       0.0258
     29 OAD        -7.6118   27.8750   -8.4690 O.2         1 K26      -0.3972
     30 CB         -4.6331   24.0875  -10.3006 C.3         1 K26       0.0163
     31 CG         -3.2438   24.4964  -10.6494 C.ar        1 K26      -0.0493
     32 CD1        -2.3157   24.8449   -9.6400 C.ar        1 K26      -0.0685
     33 CE1        -1.0068   25.2394   -9.9770 C.ar        1 K26      -0.0398
     34 CZ         -0.6093   25.3066  -11.3225 C.ar        1 K26       0.0805
     35 OH          0.6761   25.6149  -11.6260 O.3         1 K26      -0.3376
     36 CE2        -1.5316   24.9775  -12.3385 C.ar        1 K26      -0.0398
     37 CD2        -2.8386   24.5850  -12.0018 C.ar        1 K26      -0.0685
     38 H1        -10.0890   22.4427  -11.6197 H           1 K26       0.0530
     39 H2        -11.8832   21.0839  -12.4801 H           1 K26       0.0525
     40 H3        -14.3823   20.4427  -11.3876 H           1 K26       0.2458
     41 H4        -14.6362   23.1987  -10.0995 H           1 K26       0.0525
     42 H5        -12.8463   24.5526   -9.2160 H           1 K26       0.0530
     43 H6         -9.4971   23.7452   -9.3131 H           1 K26       0.0442
     44 H7        -10.5067   25.1444   -9.0413 H           1 K26       0.0442
     45 H8         -9.3089   24.6299  -11.8062 H           1 K26       0.0771
     46 H9         -8.0106   25.8749   -9.4987 H           1 K26       0.1870
     47 H10        -5.1511   26.1945  -10.6672 H           1 K26       0.0821
     48 H11        -6.4674   25.0023   -8.3543 H           1 K26       0.1885
     49 H12        -4.8734   27.3232   -6.1825 H           1 K26       0.0803
     50 H13        -5.5702   24.4795   -6.4566 H           1 K26       0.0345
     51 H14        -4.3714   24.2434   -4.3556 H           1 K26       0.0235
     52 H15        -4.3854   26.0003   -4.1090 H           1 K26       0.0235
     53 H16        -3.4863   25.2902   -5.4649 H           1 K26       0.0235
     54 H17        -7.0755   25.8584   -4.1848 H           1 K26       0.0267
     55 H18        -6.7867   24.1296   -4.3276 H           1 K26       0.0267
     56 H19        -9.0628   24.6314   -5.0094 H           1 K26       0.0230
     57 H20        -8.1442   24.0083   -6.3925 H           1 K26       0.0230
     58 H21        -8.5023   25.7448   -6.2607 H           1 K26       0.0230
     59 H22        -6.9992   27.7012   -5.4714 H           1 K26       0.1883
     60 H23        -9.3871   29.2376   -7.5145 H           1 K26       0.0467
     61 H24        -8.4089   29.5973   -6.0923 H           1 K26       0.0467
     62 H25        -9.4356   28.1491   -6.1228 H           1 K26       0.0467
     63 H26        -4.9793   23.3632  -11.0485 H           1 K26       0.0453
     64 H27        -4.6208   23.5241   -9.3638 H           1 K26       0.0453
     65 H28        -2.5868   24.8097   -8.6544 H           1 K26       0.0530
     66 H29        -0.3376   25.4743   -9.2406 H           1 K26       0.0525
     67 H30         0.6988   26.5678  -11.8624 H           1 K26       0.2458
     68 H31        -1.2459   25.0136  -13.3194 H           1 K26       0.0525
     69 H32        -3.4954   24.3586  -12.7541 H           1 K26       0.0530
@<TRIPOS>BOND
     1     1     2  ar
     2     1     7  ar
     3     2     3  ar
     4     3     4   1
     5     3     5  ar
     6     5     6  ar
     7     6     7  ar
     8     7     8   1
     9     8     9   1
    10     9    10   1
    11     9    14   1
    12    10    11  ar
    13    10    12  ar
    14    10    13  ar
    15    14    15  am
    16    15    16   2
    17    15    17   1
    18    17    18   1
    19    17    30   1
    20    18    19  am
    21    19    20   2
    22    19    21   1
    23    21    22   1
    24    21    26   1
    25    22    23   1
    26    22    24   1
    27    24    25   1
    28    26    27  am
    29    27    28   1
    30    27    29   2
    31    30    31   1
    32    31    32  ar
    33    31    37  ar
    34    32    33  ar
    35    33    34  ar
    36    34    35   1
    37    34    36  ar
    38    36    37  ar
    39     1    38   1
    40     2    39   1
    41     4    40   1
    42     5    41   1
    43     6    42   1
    44     8    43   1
    45     8    44   1
    46     9    45   1
    47    14    46   1
    48    17    47   1
    49    18    48   1
    50    21    49   1
    51    22    50   1
    52    23    51   1
    53    23    52   1
    54    23    53   1
    55    24    54   1
    56    24    55   1
    57    25    56   1
    58    25    57   1
    59    25    58   1
    60    26    59   1
    61    28    60   1
    62    28    61   1
    63    28    62   1
    64    30    63   1
    65    30    64   1
    66    32    65   1
    67    33    66   1
    68    35    67   1
    69    36    68   1
    70    37    69   1
@<TRIPOS>SUBSTRUCTURE
     1  K26      1

