@<TRIPOS>MOLECULE
2xhm_ligand_066
    69    70
SMALL
GAST_HUCK
****
This file was generated by PARSER (from files_GN.cpp)

@<TRIPOS>ATOM
      1 CAR       -12.5519   23.9013  -10.2362 C.ar        1 K26      -0.0686
      2 CAN       -13.6506   23.1173  -10.6294 C.ar        1 K26      -0.0398
      3 CBD       -13.4577   21.9899  -11.4482 C.ar        1 K26       0.0805
      4 OAI       -14.5198   21.2541  -11.8537 O.3         1 K26      -0.3376
      5 CAO       -12.1575   21.6493  -11.8651 C.ar        1 K26      -0.0398
      6 CAS       -11.0593   22.4373  -11.4758 C.ar        1 K26      -0.0686
      7 CBF       -11.2372   23.5783  -10.6604 C.ar        1 K26      -0.0501
      8 CAV       -10.0648   24.3939  -10.2097 C.3         1 K26       0.0145
      9 CBI        -9.0287   24.8386  -11.2996 C.3         1 K26       0.1207
     10 PBK        -9.6296   25.8833  -12.4604 P.3         1 K26       0.0863
     11 OAJ       -10.4154   26.9656  -11.9197 O.co2       1 K26      -0.5606
     12 OAK        -8.5525   26.4490  -13.2381 O.co2       1 K26      -0.5606
     13 OAG       -10.4702   25.1741  -13.3960 O.co2       1 K26      -0.5606
     14 NAY        -7.9007   25.4714  -10.6452 N.am        1 K26      -0.2653
     15 C          -6.6091   25.1779  -10.8337 C.2         1 K26       0.2049
     16 O          -6.2747   24.3338  -11.6613 O.2         1 K26      -0.3943
     17 CA         -5.5349   25.7941  -10.0466 C.3         1 K26       0.1389
     18 N          -5.8493   27.0946   -9.5213 N.am        1 K26      -0.2621
     19 CBB        -6.1792   28.1881  -10.2026 C.2         1 K26       0.2043
     20 OAF        -6.1933   28.1698  -11.4323 O.2         1 K26      -0.3944
     21 CBJ        -6.6009   29.3954   -9.4909 C.3         1 K26       0.1334
     22 CBG        -5.4157   30.2605   -8.9297 C.3         1 K26      -0.0037
     23 CAC        -4.4644   29.4661   -7.9816 C.3         1 K26      -0.0582
     24 CAT        -4.6364   30.9900  -10.0697 C.3         1 K26      -0.0491
     25 CAA        -3.7652   32.1841   -9.6088 C.3         1 K26      -0.0648
     26 NAX        -7.5193   29.0666   -8.4295 N.am        1 K26      -0.2656
     27 CAZ        -8.6257   28.3414   -8.5299 C.2         1 K26       0.1751
     28 CAB        -9.3397   27.9991   -7.3225 C.3         1 K26       0.0258
     29 OAD        -9.0143   27.9132   -9.6105 O.2         1 K26      -0.3972
     30 CB         -5.0621   24.8555   -8.8888 C.3         1 K26       0.0163
     31 CG         -6.0386   24.7229   -7.7691 C.ar        1 K26      -0.0493
     32 CD1        -7.1569   23.8632   -7.8795 C.ar        1 K26      -0.0685
     33 CE1        -8.1035   23.7771   -6.8409 C.ar        1 K26      -0.0398
     34 CZ         -7.9394   24.5402   -5.6683 C.ar        1 K26       0.0805
     35 OH         -8.8313   24.4639   -4.6496 O.3         1 K26      -0.3376
     36 CE2        -6.8295   25.3937   -5.5442 C.ar        1 K26      -0.0398
     37 CD2        -5.8851   25.4830   -6.5853 C.ar        1 K26      -0.0685
     38 H1        -12.7183   24.7100   -9.6336 H           1 K26       0.0530
     39 H2        -14.5908   23.3639  -10.3167 H           1 K26       0.0525
     40 H3        -14.4955   20.4362  -11.3112 H           1 K26       0.2458
     41 H4        -12.0083   20.8295  -12.4576 H           1 K26       0.0525
     42 H5        -10.1202   22.1743  -11.7893 H           1 K26       0.0530
     43 H6         -9.5351   23.7932   -9.4617 H           1 K26       0.0442
     44 H7        -10.4118   25.2994   -9.6862 H           1 K26       0.0442
     45 H8         -8.7126   23.9332  -11.8284 H           1 K26       0.0771
     46 H9         -8.1124   26.1829  -10.0117 H           1 K26       0.1870
     47 H10        -4.6692   25.9356  -10.7052 H           1 K26       0.0821
     48 H11        -5.8369   27.1895   -8.5563 H           1 K26       0.1885
     49 H12        -7.1627   30.0362  -10.1869 H           1 K26       0.0803
     50 H13        -5.8775   31.0368   -8.3173 H           1 K26       0.0345
     51 H14        -3.7905   30.1432   -7.4548 H           1 K26       0.0235
     52 H15        -3.8644   28.7515   -8.5455 H           1 K26       0.0235
     53 H16        -5.0268   28.9212   -7.2196 H           1 K26       0.0235
     54 H17        -5.3529   31.3818  -10.7940 H           1 K26       0.0267
     55 H18        -3.9952   30.2782  -10.5912 H           1 K26       0.0267
     56 H19        -3.3587   32.7044  -10.4796 H           1 K26       0.0230
     57 H20        -2.9260   31.8426   -8.9992 H           1 K26       0.0230
     58 H21        -4.3594   32.8948   -9.0295 H           1 K26       0.0230
     59 H22        -7.2898   29.3738   -7.5336 H           1 K26       0.1883
     60 H23       -10.1816   27.3289   -7.5293 H           1 K26       0.0467
     61 H24        -9.7264   28.9092   -6.8595 H           1 K26       0.0467
     62 H25        -8.6619   27.5009   -6.6209 H           1 K26       0.0467
     63 H26        -4.1193   25.2505   -8.5049 H           1 K26       0.0453
     64 H27        -4.8304   23.8629   -9.2795 H           1 K26       0.0453
     65 H28        -7.2853   23.2896   -8.7159 H           1 K26       0.0530
     66 H29        -8.9082   23.1540   -6.9426 H           1 K26       0.0525
     67 H30        -9.7189   24.5528   -5.0542 H           1 K26       0.2458
     68 H31        -6.7059   25.9578   -4.7001 H           1 K26       0.0525
     69 H32        -5.0953   26.1236   -6.4779 H           1 K26       0.0530
@<TRIPOS>BOND
     1     1     2  ar
     2     1     7  ar
     3     2     3  ar
     4     3     4   1
     5     3     5  ar
     6     5     6  ar
     7     6     7  ar
     8     7     8   1
     9     8     9   1
    10     9    10   1
    11     9    14   1
    12    10    11  ar
    13    10    12  ar
    14    10    13  ar
    15    14    15  am
    16    15    16   2
    17    15    17   1
    18    17    18   1
    19    17    30   1
    20    18    19  am
    21    19    20   2
    22    19    21   1
    23    21    22   1
    24    21    26   1
    25    22    23   1
    26    22    24   1
    27    24    25   1
    28    26    27  am
    29    27    28   1
    30    27    29   2
    31    30    31   1
    32    31    32  ar
    33    31    37  ar
    34    32    33  ar
    35    33    34  ar
    36    34    35   1
    37    34    36  ar
    38    36    37  ar
    39     1    38   1
    40     2    39   1
    41     4    40   1
    42     5    41   1
    43     6    42   1
    44     8    43   1
    45     8    44   1
    46     9    45   1
    47    14    46   1
    48    17    47   1
    49    18    48   1
    50    21    49   1
    51    22    50   1
    52    23    51   1
    53    23    52   1
    54    23    53   1
    55    24    54   1
    56    24    55   1
    57    25    56   1
    58    25    57   1
    59    25    58   1
    60    26    59   1
    61    28    60   1
    62    28    61   1
    63    28    62   1
    64    30    63   1
    65    30    64   1
    66    32    65   1
    67    33    66   1
    68    35    67   1
    69    36    68   1
    70    37    69   1
@<TRIPOS>SUBSTRUCTURE
     1  K26      1

