@<TRIPOS>MOLECULE
2xnb_ligand_022
    50    53
SMALL
GAST_HUCK
****
This file was generated by PARSER (from files_GN.cpp)

@<TRIPOS>ATOM
      1 C17        26.3041   22.2807   21.5952 C.3         1 Y8L       0.0648
      2 C18        26.7840   22.5319   20.1394 C.3         1 Y8L      -0.0139
      3 N19        27.2834   21.2836   19.5227 N.4         1 Y8L       0.2297
      4 C20        26.3087   20.1708   19.5834 C.3         1 Y8L      -0.0139
      5 C21        25.8495   19.9434   21.0463 C.3         1 Y8L       0.0648
      6 N16        25.3490   21.1770   21.6332 N.pl3       1 Y8L      -0.3045
      7 C12        24.0840   21.3025   22.1746 C.ar        1 Y8L       0.0297
      8 C13        23.8468   22.1420   23.2934 C.ar        1 Y8L      -0.0528
      9 C14        22.5602   22.3328   23.8214 C.ar        1 Y8L      -0.0489
     10 C11        22.9477   20.6273   21.6492 C.ar        1 Y8L      -0.0528
     11 C10        21.6480   20.8245   22.1686 C.ar        1 Y8L      -0.0489
     12 C9         21.4364   21.6951   23.2585 C.ar        1 Y8L       0.0527
     13 N7         20.2349   22.0284   23.8168 N.pl3       1 Y8L      -0.2529
     14 C4         19.1676   21.2461   24.1011 C.ar        1 Y8L       0.1821
     15 N5         18.9640   19.9750   23.6594 N.ar        1 Y8L      -0.2810
     16 N3         18.2803   21.7654   24.9852 N.ar        1 Y8L      -0.2768
     17 C2         17.2343   21.0501   25.4641 C.ar        1 Y8L      -0.0078
     18 C1         17.0428   19.7269   25.0426 C.ar        1 Y8L      -0.0412
     19 C6         17.9259   19.1913   24.0796 C.ar        1 Y8L       0.0192
     20 C15        17.8359   17.8556   23.5995 C.2         1 Y8L       0.0635
     21 S23        19.2478   17.0008   23.1209 S.3         1 Y8L       0.0011
     22 C24        18.4521   15.5202   22.8008 C.2         1 Y8L       0.2827
     23 O28        19.0613   14.4972   22.4133 O.2         1 Y8L      -0.3738
     24 N25        17.1253   15.6772   23.0414 N.am        1 Y8L      -0.1962
     25 C29        16.2001   14.5844   22.8529 C.3         1 Y8L       0.0552
     26 C26        16.7564   16.9428   23.4580 C.2         1 Y8L       0.0878
     27 C27        15.3282   17.3034   23.6872 C.3         1 Y8L       0.0050
     28 H1         25.8922   23.2281   21.9477 H           1 Y8L       0.0562
     29 H2         27.1685   22.0437   22.2241 H           1 Y8L       0.0562
     30 H3         27.5920   23.2685   20.1327 H           1 Y8L       0.0833
     31 H4         25.9561   22.9268   19.5432 H           1 Y8L       0.0833
     32 H5         28.1305   21.0048   20.0227 H           1 Y8L       0.2015
     33 H6         27.5250   21.4653   18.5465 H           1 Y8L       0.2015
     34 H7         26.7862   19.2666   19.1976 H           1 Y8L       0.0833
     35 H8         25.4437   20.3995   18.9551 H           1 Y8L       0.0833
     36 H9         26.7170   19.6093   21.6278 H           1 Y8L       0.0562
     37 H10        25.1396   19.1154   21.0689 H           1 Y8L       0.0562
     38 H11        24.6213   22.5965   23.7789 H           1 Y8L       0.0490
     39 H12        22.4470   22.9367   24.6406 H           1 Y8L       0.0507
     40 H13        23.0361   20.0434   20.8173 H           1 Y8L       0.0490
     41 H14        20.8534   20.3729   21.7105 H           1 Y8L       0.0507
     42 H15        20.2171   22.9132   24.2225 H           1 Y8L       0.2141
     43 H16        16.6255   21.4630   26.1689 H           1 Y8L       0.0819
     44 H17        16.3000   19.1653   25.4715 H           1 Y8L       0.0541
     45 H18        16.6867   13.6522   22.5544 H           1 Y8L       0.0582
     46 H19        15.4785   14.8370   22.0721 H           1 Y8L       0.0582
     47 H20        15.6633   14.3851   23.7832 H           1 Y8L       0.0582
     48 H21        15.1585   18.3608   23.8699 H           1 Y8L       0.0473
     49 H22        14.9425   16.7415   24.5355 H           1 Y8L       0.0473
     50 H23        14.7498   17.0381   22.8054 H           1 Y8L       0.0473
@<TRIPOS>BOND
     1     1     2   1
     2     1     6   1
     3     2     3   1
     4     3     4   1
     5     4     5   1
     6     5     6   1
     7     6     7   1
     8     7     8  ar
     9     7    10  ar
    10     8     9  ar
    11     9    12  ar
    12    10    11  ar
    13    11    12  ar
    14    12    13   1
    15    13    14   1
    16    14    15  ar
    17    14    16  ar
    18    15    19  ar
    19    16    17  ar
    20    17    18  ar
    21    18    19  ar
    22    19    20   1
    23    20    21   1
    24    20    26   2
    25    21    22   1
    26    22    23   2
    27    22    24  am
    28    24    25   1
    29    24    26   1
    30    26    27   1
    31     1    28   1
    32     1    29   1
    33     2    30   1
    34     2    31   1
    35     3    32   1
    36     3    33   1
    37     4    34   1
    38     4    35   1
    39     5    36   1
    40     5    37   1
    41     8    38   1
    42     9    39   1
    43    10    40   1
    44    11    41   1
    45    13    42   1
    46    17    43   1
    47    18    44   1
    48    25    45   1
    49    25    46   1
    50    25    47   1
    51    27    48   1
    52    27    49   1
    53    27    50   1
@<TRIPOS>SUBSTRUCTURE
     1  Y8L      1

