@<TRIPOS>MOLECULE
2xnb_ligand_049
    50    53
SMALL
GAST_HUCK
****
This file was generated by PARSER (from files_GN.cpp)

@<TRIPOS>ATOM
      1 C17        19.3035   21.7764   31.5572 C.3         1 Y8L       0.0648
      2 C18        20.4035   21.9966   32.6308 C.3         1 Y8L      -0.0139
      3 N19        20.2632   23.3131   33.2951 N.4         1 Y8L       0.2297
      4 C20        20.1683   24.4474   32.3493 C.3         1 Y8L      -0.0139
      5 C21        19.0386   24.1913   31.3206 C.3         1 Y8L       0.0648
      6 N16        19.2510   22.9169   30.6486 N.pl3       1 Y8L      -0.3045
      7 C12        19.4123   22.7978   29.2816 C.ar        1 Y8L       0.0297
      8 C13        18.9873   21.6363   28.5796 C.ar        1 Y8L      -0.0528
      9 C14        19.1773   21.4880   27.1946 C.ar        1 Y8L      -0.0489
     10 C11        20.0021   23.8227   28.4926 C.ar        1 Y8L      -0.0528
     11 C10        20.1908   23.6804   27.1055 C.ar        1 Y8L      -0.0489
     12 C9         19.8150   22.4971   26.4400 C.ar        1 Y8L       0.0527
     13 N7         20.0717   22.4159   25.0960 N.pl3       1 Y8L      -0.2529
     14 C4         20.3615   21.3122   24.3636 C.ar        1 Y8L       0.1821
     15 N5         20.4416   20.0520   24.8738 N.ar        1 Y8L      -0.2810
     16 N3         20.6470   21.4840   23.0465 N.ar        1 Y8L      -0.2768
     17 C2         20.9993   20.4493   22.2431 C.ar        1 Y8L      -0.0078
     18 C1         21.0738   19.1490   22.7670 C.ar        1 Y8L      -0.0412
     19 C6         20.7616   18.9577   24.1306 C.ar        1 Y8L       0.0192
     20 C15        20.8442   17.7026   24.7710 C.2         1 Y8L       0.0635
     21 S23        21.5722   17.5363   26.3165 S.3         1 Y8L       0.0011
     22 C24        21.4017   15.8352   26.3948 C.2         1 Y8L       0.2827
     23 O28        21.8043   15.1612   27.3710 O.2         1 Y8L      -0.3738
     24 N25        20.7892   15.4005   25.2620 N.am        1 Y8L      -0.1962
     25 C29        20.5166   14.0017   25.0400 C.3         1 Y8L       0.0552
     26 C26        20.4553   16.4015   24.3724 C.2         1 Y8L       0.0878
     27 C27        19.6977   16.1251   23.1223 C.3         1 Y8L       0.0050
     28 H1         18.3349   21.6559   32.0500 H           1 Y8L       0.0562
     29 H2         19.5405   20.8300   31.0690 H           1 Y8L       0.0562
     30 H3         21.3906   21.9340   32.1635 H           1 Y8L       0.0833
     31 H4         20.3404   21.2158   33.3908 H           1 Y8L       0.0833
     32 H5         21.0634   23.4644   33.9159 H           1 Y8L       0.2015
     33 H6         19.4121   23.2969   33.8595 H           1 Y8L       0.2015
     34 H7         21.1219   24.5820   31.8308 H           1 Y8L       0.0833
     35 H8         19.9534   25.3581   32.9127 H           1 Y8L       0.0833
     36 H9         18.9602   25.0465   30.6490 H           1 Y8L       0.0562
     37 H10        18.0838   24.1488   31.8546 H           1 Y8L       0.0562
     38 H11        18.4825   20.8921   29.0606 H           1 Y8L       0.0490
     39 H12        18.8204   20.6470   26.7392 H           1 Y8L       0.0507
     40 H13        20.3710   24.6694   28.9260 H           1 Y8L       0.0490
     41 H14        20.6451   24.4390   26.5854 H           1 Y8L       0.0507
     42 H15        20.1547   23.2652   24.6311 H           1 Y8L       0.2141
     43 H16        21.2143   20.6257   21.2604 H           1 Y8L       0.0819
     44 H17        21.3751   18.3755   22.1713 H           1 Y8L       0.0541
     45 H18        20.9162   13.3571   25.8259 H           1 Y8L       0.0582
     46 H19        20.9646   13.6809   24.0979 H           1 Y8L       0.0582
     47 H20        19.4390   13.8325   24.9944 H           1 Y8L       0.0582
     48 H21        19.3771   17.0308   22.6088 H           1 Y8L       0.0473
     49 H22        18.7975   15.5575   23.3563 H           1 Y8L       0.0473
     50 H23        20.3180   15.5415   22.4414 H           1 Y8L       0.0473
@<TRIPOS>BOND
     1     1     2   1
     2     1     6   1
     3     2     3   1
     4     3     4   1
     5     4     5   1
     6     5     6   1
     7     6     7   1
     8     7     8  ar
     9     7    10  ar
    10     8     9  ar
    11     9    12  ar
    12    10    11  ar
    13    11    12  ar
    14    12    13   1
    15    13    14   1
    16    14    15  ar
    17    14    16  ar
    18    15    19  ar
    19    16    17  ar
    20    17    18  ar
    21    18    19  ar
    22    19    20   1
    23    20    21   1
    24    20    26   2
    25    21    22   1
    26    22    23   2
    27    22    24  am
    28    24    25   1
    29    24    26   1
    30    26    27   1
    31     1    28   1
    32     1    29   1
    33     2    30   1
    34     2    31   1
    35     3    32   1
    36     3    33   1
    37     4    34   1
    38     4    35   1
    39     5    36   1
    40     5    37   1
    41     8    38   1
    42     9    39   1
    43    10    40   1
    44    11    41   1
    45    13    42   1
    46    17    43   1
    47    18    44   1
    48    25    45   1
    49    25    46   1
    50    25    47   1
    51    27    48   1
    52    27    49   1
    53    27    50   1
@<TRIPOS>SUBSTRUCTURE
     1  Y8L      1

