@<TRIPOS>MOLECULE
2xnb_ligand_041
    50    53
SMALL
GAST_HUCK
****
This file was generated by PARSER (from files_GN.cpp)

@<TRIPOS>ATOM
      1 C17        18.5100   22.7381   32.1157 C.3         1 Y8L       0.0648
      2 C18        19.6658   22.5872   33.1377 C.3         1 Y8L      -0.0139
      3 N19        19.9399   23.8873   33.7887 N.4         1 Y8L       0.2297
      4 C20        20.1530   25.0012   32.8369 C.3         1 Y8L      -0.0139
      5 C21        19.0376   25.0729   31.7569 C.3         1 Y8L       0.0648
      6 N16        18.8397   23.7666   31.1339 N.pl3       1 Y8L      -0.3045
      7 C12        19.0034   23.5158   29.7762 C.ar        1 Y8L       0.0297
      8 C13        19.2090   22.2042   29.2619 C.ar        1 Y8L      -0.0528
      9 C14        19.3877   21.9468   27.8899 C.ar        1 Y8L      -0.0489
     10 C11        18.9670   24.5480   28.7980 C.ar        1 Y8L      -0.0528
     11 C10        19.1438   24.2999   27.4236 C.ar        1 Y8L      -0.0489
     12 C9         19.3832   22.9989   26.9534 C.ar        1 Y8L       0.0527
     13 N7         19.5408   22.8047   25.6081 N.pl3       1 Y8L      -0.2529
     14 C4         20.3666   21.9251   24.9958 C.ar        1 Y8L       0.1821
     15 N5         21.3072   21.1903   25.6523 N.ar        1 Y8L      -0.2810
     16 N3         20.2890   21.8053   23.6451 N.ar        1 Y8L      -0.2768
     17 C2         21.0926   20.9608   22.9509 C.ar        1 Y8L      -0.0078
     18 C1         22.0511   20.1870   23.6285 C.ar        1 Y8L      -0.0412
     19 C6         22.1548   20.3322   25.0272 C.ar        1 Y8L       0.0192
     20 C15        23.1021   19.6160   25.7792 C.2         1 Y8L       0.0635
     21 S23        23.2512   17.9066   25.6990 S.3         1 Y8L       0.0011
     22 C24        24.5140   17.8033   26.8499 C.2         1 Y8L       0.2827
     23 O28        25.0342   16.7170   27.1847 O.2         1 Y8L      -0.3738
     24 N25        24.8284   19.0556   27.2794 N.am        1 Y8L      -0.1962
     25 C29        25.8753   19.2900   28.2390 C.3         1 Y8L       0.0552
     26 C26        24.0719   20.0554   26.7047 C.2         1 Y8L       0.0878
     27 C27        24.3102   21.4942   26.9964 C.3         1 Y8L       0.0050
     28 H1         17.6044   23.0357   32.6539 H           1 Y8L       0.0562
     29 H2         18.2699   21.7576   31.7093 H           1 Y8L       0.0562
     30 H3         20.5643   22.2312   32.6261 H           1 Y8L       0.0833
     31 H4         19.3912   21.8642   33.9082 H           1 Y8L       0.0833
     32 H5         20.7755   23.7907   34.3706 H           1 Y8L       0.2015
     33 H6         19.1462   24.1230   34.3895 H           1 Y8L       0.2015
     34 H7         21.1256   24.8753   32.3475 H           1 Y8L       0.0833
     35 H8         20.1763   25.9375   33.4015 H           1 Y8L       0.0833
     36 H9         19.3265   25.8663   31.0789 H           1 Y8L       0.0562
     37 H10        18.1025   25.3892   32.2282 H           1 Y8L       0.0562
     38 H11        19.2840   21.4008   29.8757 H           1 Y8L       0.0490
     39 H12        19.5108   20.9854   27.5784 H           1 Y8L       0.0507
     40 H13        18.7648   25.5095   29.0550 H           1 Y8L       0.0490
     41 H14        19.1072   25.0771   26.7617 H           1 Y8L       0.0507
     42 H15        19.0783   23.4287   25.0236 H           1 Y8L       0.2141
     43 H16        21.0034   20.8996   21.9359 H           1 Y8L       0.0819
     44 H17        22.6627   19.5568   23.1097 H           1 Y8L       0.0541
     45 H18        26.3553   18.3733   28.5826 H           1 Y8L       0.0582
     46 H19        25.4690   19.7945   29.1155 H           1 Y8L       0.0582
     47 H20        26.6516   19.9172   27.8007 H           1 Y8L       0.0582
     48 H21        23.7032   22.1568   26.3811 H           1 Y8L       0.0473
     49 H22        25.3560   21.7403   26.8028 H           1 Y8L       0.0473
     50 H23        24.0875   21.7003   28.0454 H           1 Y8L       0.0473
@<TRIPOS>BOND
     1     1     2   1
     2     1     6   1
     3     2     3   1
     4     3     4   1
     5     4     5   1
     6     5     6   1
     7     6     7   1
     8     7     8  ar
     9     7    10  ar
    10     8     9  ar
    11     9    12  ar
    12    10    11  ar
    13    11    12  ar
    14    12    13   1
    15    13    14   1
    16    14    15  ar
    17    14    16  ar
    18    15    19  ar
    19    16    17  ar
    20    17    18  ar
    21    18    19  ar
    22    19    20   1
    23    20    21   1
    24    20    26   2
    25    21    22   1
    26    22    23   2
    27    22    24  am
    28    24    25   1
    29    24    26   1
    30    26    27   1
    31     1    28   1
    32     1    29   1
    33     2    30   1
    34     2    31   1
    35     3    32   1
    36     3    33   1
    37     4    34   1
    38     4    35   1
    39     5    36   1
    40     5    37   1
    41     8    38   1
    42     9    39   1
    43    10    40   1
    44    11    41   1
    45    13    42   1
    46    17    43   1
    47    18    44   1
    48    25    45   1
    49    25    46   1
    50    25    47   1
    51    27    48   1
    52    27    49   1
    53    27    50   1
@<TRIPOS>SUBSTRUCTURE
     1  Y8L      1

