@<TRIPOS>MOLECULE
2xnb_ligand_039
    50    53
SMALL
GAST_HUCK
****
This file was generated by PARSER (from files_GN.cpp)

@<TRIPOS>ATOM
      1 C17        27.0478   24.0415   23.0057 C.3         1 Y8L       0.0648
      2 C18        26.9489   23.1841   21.7232 C.3         1 Y8L      -0.0139
      3 N19        28.1809   23.3366   20.9345 N.4         1 Y8L       0.2297
      4 C20        28.3768   24.7285   20.4943 C.3         1 Y8L      -0.0139
      5 C21        28.4419   25.6832   21.7173 C.3         1 Y8L       0.0648
      6 N16        27.5103   25.4126   22.8168 N.pl3       1 Y8L      -0.3045
      7 C12        27.3673   26.3327   23.8396 C.ar        1 Y8L       0.0297
      8 C13        27.2417   27.7221   23.5774 C.ar        1 Y8L      -0.0528
      9 C14        27.1068   28.6680   24.6101 C.ar        1 Y8L      -0.0489
     10 C11        27.3384   25.9466   25.2172 C.ar        1 Y8L      -0.0528
     11 C10        27.2259   26.8920   26.2521 C.ar        1 Y8L      -0.0489
     12 C9         27.1023   28.2654   25.9589 C.ar        1 Y8L       0.0527
     13 N7         27.0183   29.2236   26.9221 N.pl3       1 Y8L      -0.2529
     14 C4         26.0546   29.3028   27.8672 C.ar        1 Y8L       0.1821
     15 N5         25.0373   28.4095   27.9606 N.ar        1 Y8L      -0.2810
     16 N3         26.0480   30.3794   28.6933 N.ar        1 Y8L      -0.2768
     17 C2         25.0664   30.5765   29.6086 C.ar        1 Y8L      -0.0078
     18 C1         24.0126   29.6504   29.7149 C.ar        1 Y8L      -0.0412
     19 C6         24.0210   28.5291   28.8566 C.ar        1 Y8L       0.0192
     20 C15        22.9588   27.6066   28.7835 C.2         1 Y8L       0.0635
     21 S23        22.2880   27.1608   27.2680 S.3         1 Y8L       0.0011
     22 C24        21.0317   26.2039   27.9265 C.2         1 Y8L       0.2827
     23 O28        20.1867   25.6211   27.2085 O.2         1 Y8L      -0.3738
     24 N25        21.1282   26.2189   29.2816 N.am        1 Y8L      -0.1962
     25 C29        20.1751   25.5205   30.1062 C.3         1 Y8L       0.0552
     26 C26        22.1913   26.9498   29.7717 C.2         1 Y8L       0.0878
     27 C27        22.5363   26.9968   31.2167 C.3         1 Y8L       0.0050
     28 H1         27.7199   23.5198   23.6927 H           1 Y8L       0.0562
     29 H2         26.0476   24.0579   23.4506 H           1 Y8L       0.0562
     30 H3         26.0797   23.4824   21.1307 H           1 Y8L       0.0833
     31 H4         26.8256   22.1316   21.9950 H           1 Y8L       0.0833
     32 H5         28.1480   22.7051   20.1313 H           1 Y8L       0.2015
     33 H6         28.9696   23.0923   21.5370 H           1 Y8L       0.2015
     34 H7         27.5640   25.0248   19.8285 H           1 Y8L       0.0833
     35 H8         29.3082   24.7882   19.9251 H           1 Y8L       0.0833
     36 H9         28.3072   26.6797   21.3043 H           1 Y8L       0.0562
     37 H10        29.4601   25.6522   22.1192 H           1 Y8L       0.0562
     38 H11        27.1609   28.0747   22.6225 H           1 Y8L       0.0490
     39 H12        26.9869   29.6557   24.3718 H           1 Y8L       0.0507
     40 H13        27.4575   24.9692   25.4942 H           1 Y8L       0.0490
     41 H14        27.2606   26.5713   27.2250 H           1 Y8L       0.0507
     42 H15        27.6195   29.9815   26.8439 H           1 Y8L       0.2141
     43 H16        25.0809   31.4146   30.1921 H           1 Y8L       0.0819
     44 H17        23.2519   29.8161   30.3742 H           1 Y8L       0.0541
     45 H18        19.3785   25.0454   29.5283 H           1 Y8L       0.0582
     46 H19        19.7037   26.2215   30.7969 H           1 Y8L       0.0582
     47 H20        20.6804   24.7397   30.6753 H           1 Y8L       0.0582
     48 H21        23.5318   27.4049   31.3897 H           1 Y8L       0.0473
     49 H22        22.5231   25.9923   31.6401 H           1 Y8L       0.0473
     50 H23        21.8064   27.6081   31.7447 H           1 Y8L       0.0473
@<TRIPOS>BOND
     1     1     2   1
     2     1     6   1
     3     2     3   1
     4     3     4   1
     5     4     5   1
     6     5     6   1
     7     6     7   1
     8     7     8  ar
     9     7    10  ar
    10     8     9  ar
    11     9    12  ar
    12    10    11  ar
    13    11    12  ar
    14    12    13   1
    15    13    14   1
    16    14    15  ar
    17    14    16  ar
    18    15    19  ar
    19    16    17  ar
    20    17    18  ar
    21    18    19  ar
    22    19    20   1
    23    20    21   1
    24    20    26   2
    25    21    22   1
    26    22    23   2
    27    22    24  am
    28    24    25   1
    29    24    26   1
    30    26    27   1
    31     1    28   1
    32     1    29   1
    33     2    30   1
    34     2    31   1
    35     3    32   1
    36     3    33   1
    37     4    34   1
    38     4    35   1
    39     5    36   1
    40     5    37   1
    41     8    38   1
    42     9    39   1
    43    10    40   1
    44    11    41   1
    45    13    42   1
    46    17    43   1
    47    18    44   1
    48    25    45   1
    49    25    46   1
    50    25    47   1
    51    27    48   1
    52    27    49   1
    53    27    50   1
@<TRIPOS>SUBSTRUCTURE
     1  Y8L      1

