@<TRIPOS>MOLECULE
2xnb_ligand_042
    50    53
SMALL
GAST_HUCK
****
This file was generated by PARSER (from files_GN.cpp)

@<TRIPOS>ATOM
      1 C17        24.7625   19.7669   24.0770 C.3         1 Y8L       0.0648
      2 C18        25.5751   18.5622   24.6152 C.3         1 Y8L      -0.0139
      3 N19        26.7459   19.0375   25.3893 N.4         1 Y8L       0.2297
      4 C20        26.4246   19.9893   26.4837 C.3         1 Y8L      -0.0139
      5 C21        25.4950   21.1315   26.0061 C.3         1 Y8L       0.0648
      6 N16        24.4020   20.6049   25.2108 N.pl3       1 Y8L      -0.3045
      7 C12        23.1035   20.7685   25.5877 C.ar        1 Y8L       0.0297
      8 C13        22.5882   20.1197   26.7448 C.ar        1 Y8L      -0.0528
      9 C14        21.2628   20.3326   27.1548 C.ar        1 Y8L      -0.0489
     10 C11        22.2504   21.6609   24.8883 C.ar        1 Y8L      -0.0528
     11 C10        20.9627   21.9580   25.3663 C.ar        1 Y8L      -0.0489
     12 C9         20.4416   21.2684   26.4854 C.ar        1 Y8L       0.0527
     13 N7         19.1821   21.5302   26.9176 N.pl3       1 Y8L      -0.2529
     14 C4         18.1828   20.6145   26.9320 C.ar        1 Y8L       0.1821
     15 N5         16.9779   20.9701   27.4591 N.ar        1 Y8L      -0.2810
     16 N3         18.3062   19.3601   26.3975 N.ar        1 Y8L      -0.2768
     17 C2         17.2744   18.4814   26.3667 C.ar        1 Y8L      -0.0078
     18 C1         16.0296   18.8456   26.9097 C.ar        1 Y8L      -0.0412
     19 C6         15.8951   20.1412   27.4605 C.ar        1 Y8L       0.0192
     20 C15        14.7113   20.5082   28.1297 C.2         1 Y8L       0.0635
     21 S23        14.4768   20.1622   29.7915 S.3         1 Y8L       0.0011
     22 C24        12.9237   20.8795   29.8871 C.2         1 Y8L       0.2827
     23 O28        12.2537   20.9019   30.9456 O.2         1 Y8L      -0.3738
     24 N25        12.5989   21.3919   28.6687 N.am        1 Y8L      -0.1962
     25 C29        11.3774   22.1354   28.4652 C.3         1 Y8L       0.0552
     26 C26        13.5412   21.1614   27.6851 C.2         1 Y8L       0.0878
     27 C27        13.3330   21.5390   26.2627 C.3         1 Y8L       0.0050
     28 H1         23.8928   19.3628   23.5444 H           1 Y8L       0.0562
     29 H2         25.3625   20.3422   23.3544 H           1 Y8L       0.0562
     30 H3         25.9231   17.9536   23.7781 H           1 Y8L       0.0833
     31 H4         24.9489   17.9246   25.2500 H           1 Y8L       0.0833
     32 H5         27.3798   19.4967   24.7327 H           1 Y8L       0.2015
     33 H6         27.2273   18.2293   25.7950 H           1 Y8L       0.2015
     34 H7         27.3584   20.4208   26.8579 H           1 Y8L       0.0833
     35 H8         25.9469   19.4436   27.2985 H           1 Y8L       0.0833
     36 H9         26.0591   21.8335   25.3792 H           1 Y8L       0.0562
     37 H10        25.1679   21.7097   26.8746 H           1 Y8L       0.0562
     38 H11        23.1434   19.4211   27.2407 H           1 Y8L       0.0490
     39 H12        20.9170   19.8219   27.9777 H           1 Y8L       0.0507
     40 H13        22.5966   22.1905   24.0741 H           1 Y8L       0.0490
     41 H14        20.3927   22.6531   24.8723 H           1 Y8L       0.0507
     42 H15        18.9799   22.4286   27.2219 H           1 Y8L       0.2141
     43 H16        17.4239   17.5532   25.9613 H           1 Y8L       0.0819
     44 H17        15.2569   18.1757   26.9001 H           1 Y8L       0.0541
     45 H18        10.8131   22.2886   29.3909 H           1 Y8L       0.0582
     46 H19        10.7255   21.6202   27.7565 H           1 Y8L       0.0582
     47 H20        11.6169   23.1251   28.0723 H           1 Y8L       0.0582
     48 H21        14.1966   21.3007   25.6373 H           1 Y8L       0.0473
     49 H22        13.1363   22.6099   26.1892 H           1 Y8L       0.0473
     50 H23        12.4681   21.0022   25.8651 H           1 Y8L       0.0473
@<TRIPOS>BOND
     1     1     2   1
     2     1     6   1
     3     2     3   1
     4     3     4   1
     5     4     5   1
     6     5     6   1
     7     6     7   1
     8     7     8  ar
     9     7    10  ar
    10     8     9  ar
    11     9    12  ar
    12    10    11  ar
    13    11    12  ar
    14    12    13   1
    15    13    14   1
    16    14    15  ar
    17    14    16  ar
    18    15    19  ar
    19    16    17  ar
    20    17    18  ar
    21    18    19  ar
    22    19    20   1
    23    20    21   1
    24    20    26   2
    25    21    22   1
    26    22    23   2
    27    22    24  am
    28    24    25   1
    29    24    26   1
    30    26    27   1
    31     1    28   1
    32     1    29   1
    33     2    30   1
    34     2    31   1
    35     3    32   1
    36     3    33   1
    37     4    34   1
    38     4    35   1
    39     5    36   1
    40     5    37   1
    41     8    38   1
    42     9    39   1
    43    10    40   1
    44    11    41   1
    45    13    42   1
    46    17    43   1
    47    18    44   1
    48    25    45   1
    49    25    46   1
    50    25    47   1
    51    27    48   1
    52    27    49   1
    53    27    50   1
@<TRIPOS>SUBSTRUCTURE
     1  Y8L      1

