@<TRIPOS>MOLECULE
2xnb_ligand_002
    50    53
SMALL
GAST_HUCK
****
This file was generated by PARSER (from files_GN.cpp)

@<TRIPOS>ATOM
      1 C17        26.0987   23.0975   23.4047 C.3         1 Y8L       0.0648
      2 C18        26.5429   22.2470   22.1843 C.3         1 Y8L      -0.0139
      3 N19        27.6470   22.8742   21.4297 N.4         1 Y8L       0.2297
      4 C20        27.3187   24.2418   20.9963 C.3         1 Y8L      -0.0139
      5 C21        27.0878   25.1391   22.2343 C.3         1 Y8L       0.0648
      6 N16        26.3127   24.5255   23.2921 N.pl3       1 Y8L      -0.3045
      7 C12        25.9891   25.2934   24.3672 C.ar        1 Y8L       0.0297
      8 C13        26.9579   25.6421   25.3346 C.ar        1 Y8L      -0.0528
      9 C14        26.6126   26.4666   26.4226 C.ar        1 Y8L      -0.0489
     10 C11        24.6666   25.7598   24.5201 C.ar        1 Y8L      -0.0528
     11 C10        24.3239   26.5914   25.6031 C.ar        1 Y8L      -0.0489
     12 C9         25.2984   26.9725   26.5512 C.ar        1 Y8L       0.0527
     13 N7         24.9461   27.7897   27.5859 N.pl3       1 Y8L      -0.2529
     14 C4         25.4795   29.0105   27.8405 C.ar        1 Y8L       0.1821
     15 N5         26.4143   29.5894   27.0364 N.ar        1 Y8L      -0.2810
     16 N3         25.0412   29.7098   28.9224 N.ar        1 Y8L      -0.2768
     17 C2         25.5108   30.9504   29.2159 C.ar        1 Y8L      -0.0078
     18 C1         26.4618   31.5568   28.3784 C.ar        1 Y8L      -0.0412
     19 C6         26.9302   30.8277   27.2658 C.ar        1 Y8L       0.0192
     20 C15        27.8886   31.3597   26.3775 C.2         1 Y8L       0.0635
     21 S23        27.8347   32.9737   25.8007 S.3         1 Y8L       0.0011
     22 C24        29.1775   32.8133   24.7499 C.2         1 Y8L       0.2827
     23 O28        29.5704   33.7464   24.0145 O.2         1 Y8L      -0.3738
     24 N25        29.6801   31.5549   24.8672 N.am        1 Y8L      -0.1962
     25 C29        30.8457   31.1327   24.1316 C.3         1 Y8L       0.0552
     26 C26        28.9939   30.7449   25.7497 C.2         1 Y8L       0.0878
     27 C27        29.4200   29.3549   26.0604 C.3         1 Y8L       0.0050
     28 H1         26.6424   22.7350   24.2829 H           1 Y8L       0.0562
     29 H2         25.0351   22.9068   23.5776 H           1 Y8L       0.0562
     30 H3         25.6943   22.0985   21.5103 H           1 Y8L       0.0833
     31 H4         26.8715   21.2604   22.5218 H           1 Y8L       0.0833
     32 H5         27.8485   22.3014   20.6077 H           1 Y8L       0.2015
     33 H6         28.4826   22.9190   22.0190 H           1 Y8L       0.2015
     34 H7         26.4271   24.2281   20.3629 H           1 Y8L       0.0833
     35 H8         28.1460   24.6355   20.4020 H           1 Y8L       0.0833
     36 H9         26.5767   26.0450   21.8930 H           1 Y8L       0.0562
     37 H10        28.0629   25.4329   22.6316 H           1 Y8L       0.0562
     38 H11        27.9131   25.2834   25.2603 H           1 Y8L       0.0490
     39 H12        27.3212   26.6881   27.1264 H           1 Y8L       0.0507
     40 H13        23.9553   25.5205   23.8233 H           1 Y8L       0.0490
     41 H14        23.3658   26.9433   25.6747 H           1 Y8L       0.0507
     42 H15        24.1971   27.5127   28.1358 H           1 Y8L       0.2141
     43 H16        25.1762   31.4393   30.0473 H           1 Y8L       0.0819
     44 H17        26.8224   32.4887   28.5974 H           1 Y8L       0.0541
     45 H18        31.2423   31.9102   23.4754 H           1 Y8L       0.0582
     46 H19        30.5992   30.2704   23.5099 H           1 Y8L       0.0582
     47 H20        31.6415   30.8552   24.8249 H           1 Y8L       0.0582
     48 H21        28.8396   28.9005   26.8606 H           1 Y8L       0.0473
     49 H22        30.4602   29.3545   26.3854 H           1 Y8L       0.0473
     50 H23        29.3202   28.7334   25.1698 H           1 Y8L       0.0473
@<TRIPOS>BOND
     1     1     2   1
     2     1     6   1
     3     2     3   1
     4     3     4   1
     5     4     5   1
     6     5     6   1
     7     6     7   1
     8     7     8  ar
     9     7    10  ar
    10     8     9  ar
    11     9    12  ar
    12    10    11  ar
    13    11    12  ar
    14    12    13   1
    15    13    14   1
    16    14    15  ar
    17    14    16  ar
    18    15    19  ar
    19    16    17  ar
    20    17    18  ar
    21    18    19  ar
    22    19    20   1
    23    20    21   1
    24    20    26   2
    25    21    22   1
    26    22    23   2
    27    22    24  am
    28    24    25   1
    29    24    26   1
    30    26    27   1
    31     1    28   1
    32     1    29   1
    33     2    30   1
    34     2    31   1
    35     3    32   1
    36     3    33   1
    37     4    34   1
    38     4    35   1
    39     5    36   1
    40     5    37   1
    41     8    38   1
    42     9    39   1
    43    10    40   1
    44    11    41   1
    45    13    42   1
    46    17    43   1
    47    18    44   1
    48    25    45   1
    49    25    46   1
    50    25    47   1
    51    27    48   1
    52    27    49   1
    53    27    50   1
@<TRIPOS>SUBSTRUCTURE
     1  Y8L      1

