@<TRIPOS>MOLECULE
2xnb_ligand_047
    50    53
SMALL
GAST_HUCK
****
This file was generated by PARSER (from files_GN.cpp)

@<TRIPOS>ATOM
      1 C17        26.7887   24.8723   23.3766 C.3         1 Y8L       0.0648
      2 C18        27.1677   25.4928   22.0063 C.3         1 Y8L      -0.0139
      3 N19        28.5388   26.0437   22.0699 N.4         1 Y8L       0.2297
      4 C20        28.7349   27.0011   23.1794 C.3         1 Y8L      -0.0139
      5 C21        28.2704   26.4071   24.5391 C.3         1 Y8L       0.0648
      6 N16        26.9126   25.8659   24.4419 N.pl3       1 Y8L      -0.3045
      7 C12        25.8734   26.2218   25.2960 C.ar        1 Y8L       0.0297
      8 C13        26.0827   26.8345   26.5643 C.ar        1 Y8L      -0.0528
      9 C14        25.0255   27.1546   27.4377 C.ar        1 Y8L      -0.0489
     10 C11        24.5096   25.9709   24.9611 C.ar        1 Y8L      -0.0528
     11 C10        23.4472   26.2567   25.8418 C.ar        1 Y8L      -0.0489
     12 C9         23.7003   26.8434   27.0925 C.ar        1 Y8L       0.0527
     13 N7         22.6666   27.1854   27.9025 N.pl3       1 Y8L      -0.2529
     14 C4         22.0300   26.3483   28.7529 C.ar        1 Y8L       0.1821
     15 N5         22.4075   25.0581   28.9777 N.ar        1 Y8L      -0.2810
     16 N3         20.9600   26.8381   29.4278 N.ar        1 Y8L      -0.2768
     17 C2         20.2632   26.0799   30.3116 C.ar        1 Y8L      -0.0078
     18 C1         20.6562   24.7557   30.5613 C.ar        1 Y8L      -0.0412
     19 C6         21.7612   24.2369   29.8548 C.ar        1 Y8L       0.0192
     20 C15        22.2514   22.9332   30.0915 C.2         1 Y8L       0.0635
     21 S23        22.4355   22.2875   31.6716 S.3         1 Y8L       0.0011
     22 C24        23.1511   20.8194   31.1619 C.2         1 Y8L       0.2827
     23 O28        23.5121   19.9305   31.9691 O.2         1 Y8L      -0.3738
     24 N25        23.2446   20.8203   29.8070 N.am        1 Y8L      -0.1962
     25 C29        23.8208   19.7125   29.0866 C.3         1 Y8L       0.0552
     26 C26        22.7436   21.9547   29.2002 C.2         1 Y8L       0.0878
     27 C27        22.6771   22.1137   27.7252 C.3         1 Y8L       0.0050
     28 H1         27.4829   24.0492   23.5843 H           1 Y8L       0.0562
     29 H2         25.8098   24.4037   23.2793 H           1 Y8L       0.0562
     30 H3         26.4617   26.2844   21.7434 H           1 Y8L       0.0833
     31 H4         27.1309   24.7291   21.2272 H           1 Y8L       0.0833
     32 H5         28.7551   26.5202   21.1912 H           1 Y8L       0.2015
     33 H6         29.1918   25.2676   22.1979 H           1 Y8L       0.2015
     34 H7         28.1772   27.9163   22.9615 H           1 Y8L       0.0833
     35 H8         29.7971   27.2581   23.2293 H           1 Y8L       0.0833
     36 H9         28.3937   27.2090   25.2650 H           1 Y8L       0.0562
     37 H10        28.9554   25.6006   24.8246 H           1 Y8L       0.0562
     38 H11        27.0219   27.0314   26.9094 H           1 Y8L       0.0490
     39 H12        25.2263   27.6096   28.3348 H           1 Y8L       0.0507
     40 H13        24.2352   25.6260   24.0436 H           1 Y8L       0.0490
     41 H14        22.4856   26.0592   25.5579 H           1 Y8L       0.0507
     42 H15        22.3315   28.0933   27.8371 H           1 Y8L       0.2141
     43 H16        19.4603   26.4828   30.7948 H           1 Y8L       0.0819
     44 H17        20.1299   24.1852   31.2279 H           1 Y8L       0.0541
     45 H18        24.2236   18.9378   29.7428 H           1 Y8L       0.0582
     46 H19        24.6400   20.0648   28.4582 H           1 Y8L       0.0582
     47 H20        23.0645   19.2455   28.4545 H           1 Y8L       0.0582
     48 H21        22.0932   22.9814   27.4210 H           1 Y8L       0.0473
     49 H22        22.2034   21.2381   27.2800 H           1 Y8L       0.0473
     50 H23        23.6851   22.2153   27.3229 H           1 Y8L       0.0473
@<TRIPOS>BOND
     1     1     2   1
     2     1     6   1
     3     2     3   1
     4     3     4   1
     5     4     5   1
     6     5     6   1
     7     6     7   1
     8     7     8  ar
     9     7    10  ar
    10     8     9  ar
    11     9    12  ar
    12    10    11  ar
    13    11    12  ar
    14    12    13   1
    15    13    14   1
    16    14    15  ar
    17    14    16  ar
    18    15    19  ar
    19    16    17  ar
    20    17    18  ar
    21    18    19  ar
    22    19    20   1
    23    20    21   1
    24    20    26   2
    25    21    22   1
    26    22    23   2
    27    22    24  am
    28    24    25   1
    29    24    26   1
    30    26    27   1
    31     1    28   1
    32     1    29   1
    33     2    30   1
    34     2    31   1
    35     3    32   1
    36     3    33   1
    37     4    34   1
    38     4    35   1
    39     5    36   1
    40     5    37   1
    41     8    38   1
    42     9    39   1
    43    10    40   1
    44    11    41   1
    45    13    42   1
    46    17    43   1
    47    18    44   1
    48    25    45   1
    49    25    46   1
    50    25    47   1
    51    27    48   1
    52    27    49   1
    53    27    50   1
@<TRIPOS>SUBSTRUCTURE
     1  Y8L      1

