@<TRIPOS>MOLECULE
2xnb_ligand_028
    50    53
SMALL
GAST_HUCK
****
This file was generated by PARSER (from files_GN.cpp)

@<TRIPOS>ATOM
      1 C17        18.2515   25.8520   31.0678 C.3         1 Y8L       0.0648
      2 C18        17.4696   26.1763   32.3698 C.3         1 Y8L      -0.0139
      3 N19        18.1366   27.2438   33.1312 N.4         1 Y8L       0.2297
      4 C20        19.5011   26.8441   33.5031 C.3         1 Y8L      -0.0139
      5 C21        20.3498   26.6188   32.2268 C.3         1 Y8L       0.0648
      6 N16        19.7035   26.0291   31.0540 N.pl3       1 Y8L      -0.3045
      7 C12        20.4401   25.7570   29.9002 C.ar        1 Y8L       0.0297
      8 C13        21.8479   25.9668   29.8250 C.ar        1 Y8L      -0.0528
      9 C14        22.5943   25.7211   28.6560 C.ar        1 Y8L      -0.0489
     10 C11        19.8440   25.2560   28.7022 C.ar        1 Y8L      -0.0528
     11 C10        20.5869   24.9981   27.5313 C.ar        1 Y8L      -0.0489
     12 C9         21.9675   25.2534   27.4814 C.ar        1 Y8L       0.0527
     13 N7         22.6611   24.9664   26.3326 N.pl3       1 Y8L      -0.2529
     14 C4         23.7023   25.6569   25.8072 C.ar        1 Y8L       0.1821
     15 N5         24.0755   26.8861   26.2517 N.ar        1 Y8L      -0.2810
     16 N3         24.4174   25.1008   24.7970 N.ar        1 Y8L      -0.2768
     17 C2         25.5056   25.7278   24.2766 C.ar        1 Y8L      -0.0078
     18 C1         25.9263   26.9734   24.7939 C.ar        1 Y8L      -0.0412
     19 C6         25.1420   27.6016   25.7939 C.ar        1 Y8L       0.0192
     20 C15        25.3699   28.8696   26.4098 C.2         1 Y8L       0.0635
     21 S23        24.6480   29.1810   27.9410 S.3         1 Y8L       0.0011
     22 C24        25.2448   30.7681   28.1238 C.2         1 Y8L       0.2827
     23 O28        24.9559   31.4869   29.1072 O.2         1 Y8L      -0.3738
     24 N25        25.9921   31.0743   27.0355 N.am        1 Y8L      -0.1962
     25 C29        26.6423   32.3576   26.9365 C.3         1 Y8L       0.0552
     26 C26        26.0650   30.0703   26.0810 C.2         1 Y8L       0.0878
     27 C27        26.8061   30.3013   24.8082 C.3         1 Y8L       0.0050
     28 H1         17.8328   26.4896   30.2829 H           1 Y8L       0.0562
     29 H2         18.0175   24.8132   30.8208 H           1 Y8L       0.0562
     30 H3         17.3826   25.2809   32.9936 H           1 Y8L       0.0833
     31 H4         16.4556   26.5021   32.1259 H           1 Y8L       0.0833
     32 H5         17.5983   27.4516   33.9745 H           1 Y8L       0.2015
     33 H6         18.1870   28.0813   32.5487 H           1 Y8L       0.2015
     34 H7         19.4728   25.9321   34.1088 H           1 Y8L       0.0833
     35 H8         19.9465   27.6324   34.1144 H           1 Y8L       0.0833
     36 H9         21.1923   25.9911   32.5312 H           1 Y8L       0.0562
     37 H10        20.7412   27.5971   31.9304 H           1 Y8L       0.0562
     38 H11        22.3780   26.3083   30.6273 H           1 Y8L       0.0490
     39 H12        23.6069   25.8608   28.6813 H           1 Y8L       0.0507
     40 H13        18.8456   25.0591   28.6541 H           1 Y8L       0.0490
     41 H14        20.1015   24.6388   26.7039 H           1 Y8L       0.0507
     42 H15        22.3809   24.1733   25.8455 H           1 Y8L       0.2141
     43 H16        26.0473   25.2710   23.5372 H           1 Y8L       0.0819
     44 H17        26.8106   27.3717   24.4692 H           1 Y8L       0.0541
     45 H18        26.4521   33.0085   27.7948 H           1 Y8L       0.0582
     46 H19        26.2950   32.8907   26.0518 H           1 Y8L       0.0582
     47 H20        27.7219   32.2228   26.8662 H           1 Y8L       0.0582
     48 H21        26.6488   29.5219   24.0537 H           1 Y8L       0.0473
     49 H22        27.8821   30.3710   25.0233 H           1 Y8L       0.0473
     50 H23        26.4640   31.2379   24.3559 H           1 Y8L       0.0473
@<TRIPOS>BOND
     1     1     2   1
     2     1     6   1
     3     2     3   1
     4     3     4   1
     5     4     5   1
     6     5     6   1
     7     6     7   1
     8     7     8  ar
     9     7    10  ar
    10     8     9  ar
    11     9    12  ar
    12    10    11  ar
    13    11    12  ar
    14    12    13   1
    15    13    14   1
    16    14    15  ar
    17    14    16  ar
    18    15    19  ar
    19    16    17  ar
    20    17    18  ar
    21    18    19  ar
    22    19    20   1
    23    20    21   1
    24    20    26   2
    25    21    22   1
    26    22    23   2
    27    22    24  am
    28    24    25   1
    29    24    26   1
    30    26    27   1
    31     1    28   1
    32     1    29   1
    33     2    30   1
    34     2    31   1
    35     3    32   1
    36     3    33   1
    37     4    34   1
    38     4    35   1
    39     5    36   1
    40     5    37   1
    41     8    38   1
    42     9    39   1
    43    10    40   1
    44    11    41   1
    45    13    42   1
    46    17    43   1
    47    18    44   1
    48    25    45   1
    49    25    46   1
    50    25    47   1
    51    27    48   1
    52    27    49   1
    53    27    50   1
@<TRIPOS>SUBSTRUCTURE
     1  Y8L      1

