@<TRIPOS>MOLECULE
2xnb_ligand_021
    50    53
SMALL
GAST_HUCK
****
This file was generated by PARSER (from files_GN.cpp)

@<TRIPOS>ATOM
      1 C17        18.6708   25.2084   30.4579 C.3         1 Y8L       0.0648
      2 C18        18.6618   23.7160   30.8779 C.3         1 Y8L      -0.0139
      3 N19        18.6699   23.5744   32.3486 N.4         1 Y8L       0.2297
      4 C20        19.7399   24.3518   33.0118 C.3         1 Y8L      -0.0139
      5 C21        19.6703   25.8366   32.5678 C.3         1 Y8L       0.0648
      6 N16        19.7713   25.9332   31.1119 N.pl3       1 Y8L      -0.3045
      7 C12        20.7870   26.6053   30.4328 C.ar        1 Y8L       0.0297
      8 C13        20.7343   26.8668   29.0367 C.ar        1 Y8L      -0.0528
      9 C14        21.7573   27.5237   28.3322 C.ar        1 Y8L      -0.0489
     10 C11        21.9683   27.0931   31.0758 C.ar        1 Y8L      -0.0528
     11 C10        23.0054   27.7476   30.3752 C.ar        1 Y8L      -0.0489
     12 C9         22.9366   27.9405   28.9889 C.ar        1 Y8L       0.0527
     13 N7         24.0063   28.5321   28.3661 N.pl3       1 Y8L      -0.2529
     14 C4         24.4936   28.2698   27.1275 C.ar        1 Y8L       0.1821
     15 N5         25.5778   28.9717   26.7013 N.ar        1 Y8L      -0.2810
     16 N3         23.9702   27.3322   26.2986 N.ar        1 Y8L      -0.2768
     17 C2         24.4692   27.0832   25.0747 C.ar        1 Y8L      -0.0078
     18 C1         25.5901   27.7998   24.6232 C.ar        1 Y8L      -0.0412
     19 C6         26.1488   28.7859   25.4755 C.ar        1 Y8L       0.0192
     20 C15        27.2949   29.5296   25.1006 C.2         1 Y8L       0.0635
     21 S23        28.6627   28.7861   24.3703 S.3         1 Y8L       0.0011
     22 C24        29.6085   30.2085   24.2967 C.2         1 Y8L       0.2827
     23 O28        30.7723   30.2156   23.8335 O.2         1 Y8L      -0.3738
     24 N25        28.8896   31.2422   24.8133 N.am        1 Y8L      -0.1962
     25 C29        29.4342   32.5763   24.8703 C.3         1 Y8L       0.0552
     26 C26        27.6287   30.8989   25.2587 C.2         1 Y8L       0.0878
     27 C27        26.6935   31.9122   25.8212 C.3         1 Y8L       0.0050
     28 H1         17.7222   25.6699   30.7519 H           1 Y8L       0.0562
     29 H2         18.6692   25.2003   29.3755 H           1 Y8L       0.0562
     30 H3         19.5362   23.2114   30.4591 H           1 Y8L       0.0833
     31 H4         17.7679   23.2257   30.4858 H           1 Y8L       0.0833
     32 H5         18.7806   22.5863   32.5862 H           1 Y8L       0.2015
     33 H6         17.7716   23.8975   32.7163 H           1 Y8L       0.2015
     34 H7         20.7168   23.9320   32.7587 H           1 Y8L       0.0833
     35 H8         19.6034   24.2777   34.0929 H           1 Y8L       0.0833
     36 H9         20.4072   26.3858   33.1407 H           1 Y8L       0.0562
     37 H10        18.7089   26.2511   32.8853 H           1 Y8L       0.0562
     38 H11        19.9286   26.6179   28.4707 H           1 Y8L       0.0490
     39 H12        21.6221   27.7137   27.3383 H           1 Y8L       0.0507
     40 H13        22.1422   26.9611   32.0652 H           1 Y8L       0.0490
     41 H14        23.8323   28.0509   30.8919 H           1 Y8L       0.0507
     42 H15        24.5242   29.1467   28.9047 H           1 Y8L       0.2141
     43 H16        24.0248   26.3813   24.4758 H           1 Y8L       0.0819
     44 H17        25.9740   27.6188   23.6937 H           1 Y8L       0.0541
     45 H18        30.4578   32.6397   24.4935 H           1 Y8L       0.0582
     46 H19        29.4437   32.9293   25.9025 H           1 Y8L       0.0582
     47 H20        28.8244   33.2553   24.2709 H           1 Y8L       0.0582
     48 H21        25.7032   31.5114   26.0248 H           1 Y8L       0.0473
     49 H22        26.5686   32.7331   25.1151 H           1 Y8L       0.0473
     50 H23        27.1038   32.3093   26.7503 H           1 Y8L       0.0473
@<TRIPOS>BOND
     1     1     2   1
     2     1     6   1
     3     2     3   1
     4     3     4   1
     5     4     5   1
     6     5     6   1
     7     6     7   1
     8     7     8  ar
     9     7    10  ar
    10     8     9  ar
    11     9    12  ar
    12    10    11  ar
    13    11    12  ar
    14    12    13   1
    15    13    14   1
    16    14    15  ar
    17    14    16  ar
    18    15    19  ar
    19    16    17  ar
    20    17    18  ar
    21    18    19  ar
    22    19    20   1
    23    20    21   1
    24    20    26   2
    25    21    22   1
    26    22    23   2
    27    22    24  am
    28    24    25   1
    29    24    26   1
    30    26    27   1
    31     1    28   1
    32     1    29   1
    33     2    30   1
    34     2    31   1
    35     3    32   1
    36     3    33   1
    37     4    34   1
    38     4    35   1
    39     5    36   1
    40     5    37   1
    41     8    38   1
    42     9    39   1
    43    10    40   1
    44    11    41   1
    45    13    42   1
    46    17    43   1
    47    18    44   1
    48    25    45   1
    49    25    46   1
    50    25    47   1
    51    27    48   1
    52    27    49   1
    53    27    50   1
@<TRIPOS>SUBSTRUCTURE
     1  Y8L      1

