@<TRIPOS>MOLECULE
2xnb_ligand_051
    50    53
SMALL
GAST_HUCK
****
This file was generated by PARSER (from files_GN.cpp)

@<TRIPOS>ATOM
      1 C17        24.5671   17.3173   19.5771 C.3         1 Y8L       0.0648
      2 C18        23.5265   17.2984   18.4247 C.3         1 Y8L      -0.0139
      3 N19        24.1894   17.1366   17.1106 N.4         1 Y8L       0.2297
      4 C20        25.2483   18.1396   16.8504 C.3         1 Y8L      -0.0139
      5 C21        26.2650   18.1614   18.0189 C.3         1 Y8L       0.0648
      6 N16        25.5838   18.3163   19.2967 N.pl3       1 Y8L      -0.3045
      7 C12        25.8244   19.3659   20.1480 C.ar        1 Y8L       0.0297
      8 C13        26.0620   20.6669   19.6427 C.ar        1 Y8L      -0.0528
      9 C14        26.2946   21.7527   20.4953 C.ar        1 Y8L      -0.0489
     10 C11        25.8200   19.2150   21.5605 C.ar        1 Y8L      -0.0528
     11 C10        26.1069   20.2931   22.4135 C.ar        1 Y8L      -0.0489
     12 C9         26.3783   21.5836   21.8989 C.ar        1 Y8L       0.0527
     13 N7         26.6763   22.5788   22.7998 N.pl3       1 Y8L      -0.2529
     14 C4         27.2683   23.7773   22.5920 C.ar        1 Y8L       0.1821
     15 N5         27.4458   24.6143   23.6480 N.ar        1 Y8L      -0.2810
     16 N3         27.7162   24.1937   21.3844 N.ar        1 Y8L      -0.2768
     17 C2         28.2974   25.3952   21.1890 C.ar        1 Y8L      -0.0078
     18 C1         28.4652   26.2655   22.2780 C.ar        1 Y8L      -0.0412
     19 C6         28.0313   25.8437   23.5562 C.ar        1 Y8L       0.0192
     20 C15        28.1147   26.6516   24.7327 C.2         1 Y8L       0.0635
     21 S23        27.1684   26.2828   26.1176 S.3         1 Y8L       0.0011
     22 C24        27.6513   27.6413   27.0329 C.2         1 Y8L       0.2827
     23 O28        27.2295   27.8677   28.1882 O.2         1 Y8L      -0.3738
     24 N25        28.5202   28.3767   26.2960 N.am        1 Y8L      -0.1962
     25 C29        29.0563   29.6237   26.7875 C.3         1 Y8L       0.0552
     26 C26        28.8272   27.8320   25.0655 C.2         1 Y8L       0.0878
     27 C27        29.8674   28.4342   24.1967 C.3         1 Y8L       0.0050
     28 H1         25.0359   16.3340   19.6655 H           1 Y8L       0.0562
     29 H2         24.0217   17.5092   20.5036 H           1 Y8L       0.0562
     30 H3         22.9530   18.2300   18.4276 H           1 Y8L       0.0833
     31 H4         22.8295   16.4703   18.5704 H           1 Y8L       0.0833
     32 H5         23.4849   17.2003   16.3717 H           1 Y8L       0.2015
     33 H6         24.6122   16.2062   17.0760 H           1 Y8L       0.2015
     34 H7         24.7969   19.1270   16.7271 H           1 Y8L       0.0833
     35 H8         25.7591   17.8779   15.9212 H           1 Y8L       0.0833
     36 H9         27.0164   18.9317   17.8251 H           1 Y8L       0.0562
     37 H10        26.8034   17.2089   18.0295 H           1 Y8L       0.0562
     38 H11        26.0005   20.8535   18.6393 H           1 Y8L       0.0490
     39 H12        26.3742   22.6720   20.0650 H           1 Y8L       0.0507
     40 H13        25.6675   18.2964   21.9804 H           1 Y8L       0.0490
     41 H14        26.1301   20.1305   23.4249 H           1 Y8L       0.0507
     42 H15        26.4667   22.3811   23.7280 H           1 Y8L       0.2141
     43 H16        28.6014   25.6610   20.2492 H           1 Y8L       0.0819
     44 H17        28.8931   27.1889   22.1287 H           1 Y8L       0.0541
     45 H18        28.6332   29.9277   27.7486 H           1 Y8L       0.0582
     46 H19        28.8427   30.4227   26.0735 H           1 Y8L       0.0582
     47 H20        30.1378   29.5426   26.9153 H           1 Y8L       0.0582
     48 H21        30.2137   27.7379   23.4371 H           1 Y8L       0.0473
     49 H22        30.7363   28.7307   24.7878 H           1 Y8L       0.0473
     50 H23        29.4671   29.3171   23.7006 H           1 Y8L       0.0473
@<TRIPOS>BOND
     1     1     2   1
     2     1     6   1
     3     2     3   1
     4     3     4   1
     5     4     5   1
     6     5     6   1
     7     6     7   1
     8     7     8  ar
     9     7    10  ar
    10     8     9  ar
    11     9    12  ar
    12    10    11  ar
    13    11    12  ar
    14    12    13   1
    15    13    14   1
    16    14    15  ar
    17    14    16  ar
    18    15    19  ar
    19    16    17  ar
    20    17    18  ar
    21    18    19  ar
    22    19    20   1
    23    20    21   1
    24    20    26   2
    25    21    22   1
    26    22    23   2
    27    22    24  am
    28    24    25   1
    29    24    26   1
    30    26    27   1
    31     1    28   1
    32     1    29   1
    33     2    30   1
    34     2    31   1
    35     3    32   1
    36     3    33   1
    37     4    34   1
    38     4    35   1
    39     5    36   1
    40     5    37   1
    41     8    38   1
    42     9    39   1
    43    10    40   1
    44    11    41   1
    45    13    42   1
    46    17    43   1
    47    18    44   1
    48    25    45   1
    49    25    46   1
    50    25    47   1
    51    27    48   1
    52    27    49   1
    53    27    50   1
@<TRIPOS>SUBSTRUCTURE
     1  Y8L      1

