@<TRIPOS>MOLECULE
2xnb_ligand_026
    50    53
SMALL
GAST_HUCK
****
This file was generated by PARSER (from files_GN.cpp)

@<TRIPOS>ATOM
      1 C17        22.1437   25.7562   29.4983 C.3         1 Y8L       0.0648
      2 C18        21.0988   26.8463   29.8369 C.3         1 Y8L      -0.0139
      3 N19        19.7835   26.2222   30.1009 N.4         1 Y8L       0.2297
      4 C20        19.3121   25.3284   29.0167 C.3         1 Y8L      -0.0139
      5 C21        20.3897   24.2656   28.6565 C.3         1 Y8L       0.0648
      6 N16        21.6605   24.9283   28.4047 N.pl3       1 Y8L      -0.3045
      7 C12        22.3223   24.8281   27.1999 C.ar        1 Y8L       0.0297
      8 C13        22.6964   23.5760   26.6499 C.ar        1 Y8L      -0.0528
      9 C14        23.4387   23.4920   25.4523 C.ar        1 Y8L      -0.0489
     10 C11        22.6567   25.9859   26.4544 C.ar        1 Y8L      -0.0528
     11 C10        23.3636   25.8976   25.2435 C.ar        1 Y8L      -0.0489
     12 C9         23.8209   24.6555   24.7561 C.ar        1 Y8L       0.0527
     13 N7         24.6033   24.5314   23.6355 N.pl3       1 Y8L      -0.2529
     14 C4         25.7761   25.1749   23.4101 C.ar        1 Y8L       0.1821
     15 N5         26.2960   26.0617   24.2974 N.ar        1 Y8L      -0.2810
     16 N3         26.5112   24.8854   22.3069 N.ar        1 Y8L      -0.2768
     17 C2         27.7256   25.4635   22.0883 C.ar        1 Y8L      -0.0078
     18 C1         28.2632   26.3789   23.0230 C.ar        1 Y8L      -0.0412
     19 C6         27.4902   26.6967   24.1698 C.ar        1 Y8L       0.0192
     20 C15        27.8499   27.5977   25.2123 C.2         1 Y8L       0.0635
     21 S23        26.8963   27.6819   26.6472 S.3         1 Y8L       0.0011
     22 C24        27.8196   28.9034   27.3963 C.2         1 Y8L       0.2827
     23 O28        27.5211   29.3631   28.5236 O.2         1 Y8L      -0.3738
     24 N25        28.8528   29.2398   26.5814 N.am        1 Y8L      -0.1962
     25 C29        29.8367   30.2137   26.9965 C.3         1 Y8L       0.0552
     26 C26        28.8756   28.5663   25.3705 C.2         1 Y8L       0.0878
     27 C27        29.8655   28.8409   24.2962 C.3         1 Y8L       0.0050
     28 H1         22.2922   25.1217   30.3812 H           1 Y8L       0.0562
     29 H2         23.1106   26.2267   29.3043 H           1 Y8L       0.0562
     30 H3         21.0211   27.5544   29.0050 H           1 Y8L       0.0833
     31 H4         21.4130   27.3979   30.7236 H           1 Y8L       0.0833
     32 H5         19.1030   26.9684   30.2423 H           1 Y8L       0.2015
     33 H6         19.8527   25.6751   30.9613 H           1 Y8L       0.2015
     34 H7         19.0734   25.9265   28.1323 H           1 Y8L       0.0833
     35 H8         18.4000   24.8298   29.3468 H           1 Y8L       0.0833
     36 H9         20.0131   23.7076   27.7963 H           1 Y8L       0.0562
     37 H10        20.5011   23.5620   29.4866 H           1 Y8L       0.0562
     38 H11        22.5001   22.7081   27.1538 H           1 Y8L       0.0490
     39 H12        23.7322   22.5729   25.1171 H           1 Y8L       0.0507
     40 H13        22.3463   26.9090   26.7587 H           1 Y8L       0.0490
     41 H14        23.5388   26.7577   24.7238 H           1 Y8L       0.0507
     42 H15        24.3760   23.8202   23.0147 H           1 Y8L       0.2141
     43 H16        28.2573   25.2115   21.2490 H           1 Y8L       0.0819
     44 H17        29.2012   26.7716   22.8769 H           1 Y8L       0.0541
     45 H18        29.6907   30.5557   28.0216 H           1 Y8L       0.0582
     46 H19        29.7886   31.0925   26.3495 H           1 Y8L       0.0582
     47 H20        30.8362   29.7721   26.9436 H           1 Y8L       0.0582
     48 H21        29.3735   28.8106   23.3176 H           1 Y8L       0.0473
     49 H22        30.6431   28.0731   24.3240 H           1 Y8L       0.0473
     50 H23        30.3357   29.8228   24.4081 H           1 Y8L       0.0473
@<TRIPOS>BOND
     1     1     2   1
     2     1     6   1
     3     2     3   1
     4     3     4   1
     5     4     5   1
     6     5     6   1
     7     6     7   1
     8     7     8  ar
     9     7    10  ar
    10     8     9  ar
    11     9    12  ar
    12    10    11  ar
    13    11    12  ar
    14    12    13   1
    15    13    14   1
    16    14    15  ar
    17    14    16  ar
    18    15    19  ar
    19    16    17  ar
    20    17    18  ar
    21    18    19  ar
    22    19    20   1
    23    20    21   1
    24    20    26   2
    25    21    22   1
    26    22    23   2
    27    22    24  am
    28    24    25   1
    29    24    26   1
    30    26    27   1
    31     1    28   1
    32     1    29   1
    33     2    30   1
    34     2    31   1
    35     3    32   1
    36     3    33   1
    37     4    34   1
    38     4    35   1
    39     5    36   1
    40     5    37   1
    41     8    38   1
    42     9    39   1
    43    10    40   1
    44    11    41   1
    45    13    42   1
    46    17    43   1
    47    18    44   1
    48    25    45   1
    49    25    46   1
    50    25    47   1
    51    27    48   1
    52    27    49   1
    53    27    50   1
@<TRIPOS>SUBSTRUCTURE
     1  Y8L      1

