@<TRIPOS>MOLECULE
2xnb_ligand_015
    50    53
SMALL
GAST_HUCK
****
This file was generated by PARSER (from files_GN.cpp)

@<TRIPOS>ATOM
      1 C17        25.7584   19.5327   21.7215 C.3         1 Y8L       0.0648
      2 C18        26.1743   19.2566   20.2617 C.3         1 Y8L      -0.0139
      3 N19        27.1184   20.2961   19.7910 N.4         1 Y8L       0.2297
      4 C20        26.6349   21.6844   19.9566 C.3         1 Y8L      -0.0139
      5 C21        26.2580   21.9504   21.4348 C.3         1 Y8L       0.0648
      6 N16        25.3451   20.9122   21.8749 N.pl3       1 Y8L      -0.3045
      7 C12        24.0958   21.2311   22.3098 C.ar        1 Y8L       0.0297
      8 C13        23.9218   22.1739   23.3495 C.ar        1 Y8L      -0.0528
      9 C14        22.6436   22.4512   23.8523 C.ar        1 Y8L      -0.0489
     10 C11        22.9504   20.6550   21.7113 C.ar        1 Y8L      -0.0528
     11 C10        21.6669   21.0096   22.1557 C.ar        1 Y8L      -0.0489
     12 C9         21.5075   21.8520   23.2769 C.ar        1 Y8L       0.0527
     13 N7         20.2850   22.1609   23.7791 N.pl3       1 Y8L      -0.2529
     14 C4         19.3070   21.2710   24.0884 C.ar        1 Y8L       0.1821
     15 N5         19.4952   19.9196   24.0665 N.ar        1 Y8L      -0.2810
     16 N3         18.0987   21.7514   24.4673 N.ar        1 Y8L      -0.2768
     17 C2         17.0805   20.9166   24.7931 C.ar        1 Y8L      -0.0078
     18 C1         17.2659   19.5252   24.7541 C.ar        1 Y8L      -0.0412
     19 C6         18.5287   19.0132   24.3803 C.ar        1 Y8L       0.0192
     20 C15        18.8323   17.6228   24.4000 C.2         1 Y8L       0.0635
     21 S23        17.9665   16.4975   25.3695 S.3         1 Y8L       0.0011
     22 C24        18.9478   15.1477   24.9902 C.2         1 Y8L       0.2827
     23 O28        18.7369   14.0108   25.4635 O.2         1 Y8L      -0.3738
     24 N25        19.9325   15.5457   24.1439 N.am        1 Y8L      -0.1962
     25 C29        20.9462   14.6305   23.6841 C.3         1 Y8L       0.0552
     26 C26        19.8698   16.8761   23.7826 C.2         1 Y8L       0.0878
     27 C27        20.8124   17.4630   22.7941 C.3         1 Y8L       0.0050
     28 H1         26.6141   19.3572   22.3758 H           1 Y8L       0.0562
     29 H2         24.9899   18.8104   22.0159 H           1 Y8L       0.0562
     30 H3         25.2883   19.2436   19.6178 H           1 Y8L       0.0833
     31 H4         26.6586   18.2761   20.1947 H           1 Y8L       0.0833
     32 H5         27.3362   20.1309   18.8046 H           1 Y8L       0.2015
     33 H6         27.9738   20.2090   20.3397 H           1 Y8L       0.2015
     34 H7         25.7667   21.8507   19.3154 H           1 Y8L       0.0833
     35 H8         27.4203   22.3732   19.6481 H           1 Y8L       0.0833
     36 H9         25.8194   22.9541   21.4707 H           1 Y8L       0.0562
     37 H10        27.1513   21.9412   22.0615 H           1 Y8L       0.0562
     38 H11        24.7324   22.6002   23.8063 H           1 Y8L       0.0490
     39 H12        22.5421   23.0781   24.6519 H           1 Y8L       0.0507
     40 H13        23.0429   20.0304   20.9022 H           1 Y8L       0.0490
     41 H14        20.8537   20.6523   21.6526 H           1 Y8L       0.0507
     42 H15        20.1320   23.0988   23.9822 H           1 Y8L       0.2141
     43 H16        16.1841   21.3104   25.0693 H           1 Y8L       0.0819
     44 H17        16.4893   18.9076   25.0005 H           1 Y8L       0.0541
     45 H18        20.8638   13.6404   24.1346 H           1 Y8L       0.0582
     46 H19        21.9331   15.0224   23.9327 H           1 Y8L       0.0582
     47 H20        20.8730   14.5063   22.6041 H           1 Y8L       0.0582
     48 H21        20.4289   18.3831   22.3759 H           1 Y8L       0.0473
     49 H22        20.9497   16.7974   21.9413 H           1 Y8L       0.0473
     50 H23        21.7794   17.6552   23.2672 H           1 Y8L       0.0473
@<TRIPOS>BOND
     1     1     2   1
     2     1     6   1
     3     2     3   1
     4     3     4   1
     5     4     5   1
     6     5     6   1
     7     6     7   1
     8     7     8  ar
     9     7    10  ar
    10     8     9  ar
    11     9    12  ar
    12    10    11  ar
    13    11    12  ar
    14    12    13   1
    15    13    14   1
    16    14    15  ar
    17    14    16  ar
    18    15    19  ar
    19    16    17  ar
    20    17    18  ar
    21    18    19  ar
    22    19    20   1
    23    20    21   1
    24    20    26   2
    25    21    22   1
    26    22    23   2
    27    22    24  am
    28    24    25   1
    29    24    26   1
    30    26    27   1
    31     1    28   1
    32     1    29   1
    33     2    30   1
    34     2    31   1
    35     3    32   1
    36     3    33   1
    37     4    34   1
    38     4    35   1
    39     5    36   1
    40     5    37   1
    41     8    38   1
    42     9    39   1
    43    10    40   1
    44    11    41   1
    45    13    42   1
    46    17    43   1
    47    18    44   1
    48    25    45   1
    49    25    46   1
    50    25    47   1
    51    27    48   1
    52    27    49   1
    53    27    50   1
@<TRIPOS>SUBSTRUCTURE
     1  Y8L      1

