@<TRIPOS>MOLECULE
2xnb_ligand_003
    50    53
SMALL
GAST_HUCK
****
This file was generated by PARSER (from files_GN.cpp)

@<TRIPOS>ATOM
      1 C17        26.4461   22.0666   23.3482 C.3         1 Y8L       0.0648
      2 C18        25.2359   21.7092   22.4536 C.3         1 Y8L      -0.0139
      3 N19        23.9988   21.7052   23.2635 N.4         1 Y8L       0.2297
      4 C20        23.7708   22.9648   24.0075 C.3         1 Y8L      -0.0139
      5 C21        25.0049   23.3242   24.8796 C.3         1 Y8L       0.0648
      6 N16        26.2023   23.3130   24.0596 N.pl3       1 Y8L      -0.3045
      7 C12        27.0336   24.4016   23.9522 C.ar        1 Y8L       0.0297
      8 C13        27.6990   24.7375   22.7481 C.ar        1 Y8L      -0.0528
      9 C14        28.5412   25.8589   22.6611 C.ar        1 Y8L      -0.0489
     10 C11        27.2715   25.2408   25.0712 C.ar        1 Y8L      -0.0528
     11 C10        28.1242   26.3550   24.9935 C.ar        1 Y8L      -0.0489
     12 C9         28.7506   26.6986   23.7773 C.ar        1 Y8L       0.0527
     13 N7         29.5849   27.7627   23.6304 N.pl3       1 Y8L      -0.2529
     14 C4         29.5309   28.9698   24.2392 C.ar        1 Y8L       0.1821
     15 N5         28.5661   29.3494   25.1289 N.ar        1 Y8L      -0.2810
     16 N3         30.4727   29.8836   23.8865 N.ar        1 Y8L      -0.2768
     17 C2         30.4799   31.1427   24.3887 C.ar        1 Y8L      -0.0078
     18 C1         29.4957   31.5380   25.3127 C.ar        1 Y8L      -0.0412
     19 C6         28.5191   30.5885   25.6893 C.ar        1 Y8L       0.0192
     20 C15        27.4624   30.9167   26.5707 C.2         1 Y8L       0.0635
     21 S23        26.5683   32.3713   26.4343 S.3         1 Y8L       0.0011
     22 C24        25.4828   32.0165   27.7148 C.2         1 Y8L       0.2827
     23 O28        24.5768   32.8034   28.0646 O.2         1 Y8L      -0.3738
     24 N25        25.7993   30.8029   28.2349 N.am        1 Y8L      -0.1962
     25 C29        25.0631   30.2410   29.3430 C.3         1 Y8L       0.0552
     26 C26        26.8750   30.1852   27.6304 C.2         1 Y8L       0.0878
     27 C27        27.4098   28.8818   28.0959 C.3         1 Y8L       0.0050
     28 H1         27.3529   22.0717   22.7410 H           1 Y8L       0.0562
     29 H2         26.5873   21.2712   24.0855 H           1 Y8L       0.0562
     30 H3         25.3815   20.7247   22.0045 H           1 Y8L       0.0833
     31 H4         25.1467   22.4422   21.6522 H           1 Y8L       0.0833
     32 H5         24.0616   20.9397   23.9361 H           1 Y8L       0.2015
     33 H6         23.1972   21.5374   22.6526 H           1 Y8L       0.2015
     34 H7         22.8916   22.8459   24.6454 H           1 Y8L       0.0833
     35 H8         23.5627   23.7718   23.2978 H           1 Y8L       0.0833
     36 H9         25.1092   22.5879   25.6830 H           1 Y8L       0.0562
     37 H10        24.7934   24.2884   25.3500 H           1 Y8L       0.0562
     38 H11        27.5574   24.1772   21.9018 H           1 Y8L       0.0490
     39 H12        28.9948   26.0710   21.7657 H           1 Y8L       0.0507
     40 H13        26.8634   25.0261   25.9828 H           1 Y8L       0.0490
     41 H14        28.3136   26.8826   25.8481 H           1 Y8L       0.0507
     42 H15        30.2312   27.6968   22.9121 H           1 Y8L       0.2141
     43 H16        31.2012   31.7982   24.0909 H           1 Y8L       0.0819
     44 H17        29.5001   32.4840   25.6912 H           1 Y8L       0.0541
     45 H18        24.2009   30.8417   29.6402 H           1 Y8L       0.0582
     46 H19        25.7221   30.1648   30.2078 H           1 Y8L       0.0582
     47 H20        24.6931   29.2481   29.0810 H           1 Y8L       0.0582
     48 H21        28.3370   28.6087   27.5991 H           1 Y8L       0.0473
     49 H22        26.6828   28.0923   27.9106 H           1 Y8L       0.0473
     50 H23        27.6189   28.9248   29.1648 H           1 Y8L       0.0473
@<TRIPOS>BOND
     1     1     2   1
     2     1     6   1
     3     2     3   1
     4     3     4   1
     5     4     5   1
     6     5     6   1
     7     6     7   1
     8     7     8  ar
     9     7    10  ar
    10     8     9  ar
    11     9    12  ar
    12    10    11  ar
    13    11    12  ar
    14    12    13   1
    15    13    14   1
    16    14    15  ar
    17    14    16  ar
    18    15    19  ar
    19    16    17  ar
    20    17    18  ar
    21    18    19  ar
    22    19    20   1
    23    20    21   1
    24    20    26   2
    25    21    22   1
    26    22    23   2
    27    22    24  am
    28    24    25   1
    29    24    26   1
    30    26    27   1
    31     1    28   1
    32     1    29   1
    33     2    30   1
    34     2    31   1
    35     3    32   1
    36     3    33   1
    37     4    34   1
    38     4    35   1
    39     5    36   1
    40     5    37   1
    41     8    38   1
    42     9    39   1
    43    10    40   1
    44    11    41   1
    45    13    42   1
    46    17    43   1
    47    18    44   1
    48    25    45   1
    49    25    46   1
    50    25    47   1
    51    27    48   1
    52    27    49   1
    53    27    50   1
@<TRIPOS>SUBSTRUCTURE
     1  Y8L      1

