@<TRIPOS>MOLECULE
2xnb_ligand_014
    50    53
SMALL
GAST_HUCK
****
This file was generated by PARSER (from files_GN.cpp)

@<TRIPOS>ATOM
      1 C17        27.1013   29.9593   24.4899 C.3         1 Y8L       0.0648
      2 C18        27.0472   29.2903   23.0879 C.3         1 Y8L      -0.0139
      3 N19        28.0242   28.1873   22.9480 N.4         1 Y8L       0.2297
      4 C20        28.0039   27.2154   24.0625 C.3         1 Y8L      -0.0139
      5 C21        28.1758   27.9747   25.4023 C.3         1 Y8L       0.0648
      6 N16        27.0952   28.9486   25.5434 N.pl3       1 Y8L      -0.3045
      7 C12        26.1096   28.8727   26.5191 C.ar        1 Y8L       0.0297
      8 C13        25.8108   27.6555   27.1904 C.ar        1 Y8L      -0.0528
      9 C14        24.8147   27.5613   28.1788 C.ar        1 Y8L      -0.0489
     10 C11        25.3215   29.9910   26.9122 C.ar        1 Y8L      -0.0528
     11 C10        24.3136   29.9006   27.8947 C.ar        1 Y8L      -0.0489
     12 C9         24.0341   28.6851   28.5470 C.ar        1 Y8L       0.0527
     13 N7         23.0634   28.7238   29.5232 N.pl3       1 Y8L      -0.2529
     14 C4         22.4277   27.6977   30.1352 C.ar        1 Y8L       0.1821
     15 N5         22.6199   26.4000   29.8034 N.ar        1 Y8L      -0.2810
     16 N3         21.5390   27.9748   31.1226 N.ar        1 Y8L      -0.2768
     17 C2         20.8644   26.9953   31.7778 C.ar        1 Y8L      -0.0078
     18 C1         21.0730   25.6438   31.4412 C.ar        1 Y8L      -0.0412
     19 C6         21.9988   25.3638   30.4152 C.ar        1 Y8L       0.0192
     20 C15        22.3234   24.0761   29.9601 C.2         1 Y8L       0.0635
     21 S23        22.3233   23.6904   28.2898 S.3         1 Y8L       0.0011
     22 C24        22.8750   22.0852   28.5022 C.2         1 Y8L       0.2827
     23 O28        23.0667   21.3104   27.5376 O.2         1 Y8L      -0.3738
     24 N25        23.0770   21.8563   29.8262 N.am        1 Y8L      -0.1962
     25 C29        23.5721   20.5903   30.3078 C.3         1 Y8L       0.0552
     26 C26        22.7959   22.9338   30.6407 C.2         1 Y8L       0.0878
     27 C27        23.0523   22.9232   32.1006 C.3         1 Y8L       0.0050
     28 H1         26.2563   30.6459   24.5202 H           1 Y8L       0.0562
     29 H2         28.0097   30.5633   24.5725 H           1 Y8L       0.0562
     30 H3         27.2601   30.0378   22.3198 H           1 Y8L       0.0833
     31 H4         26.0425   28.8988   22.9112 H           1 Y8L       0.0833
     32 H5         28.9597   28.5959   22.9096 H           1 Y8L       0.2015
     33 H6         27.8464   27.6980   22.0663 H           1 Y8L       0.2015
     34 H7         28.8243   26.5071   23.9218 H           1 Y8L       0.0833
     35 H8         27.0614   26.6592   24.0595 H           1 Y8L       0.0833
     36 H9         29.1404   28.4929   25.3845 H           1 Y8L       0.0562
     37 H10        28.2594   27.2600   26.2205 H           1 Y8L       0.0562
     38 H11        26.2952   26.7894   26.9542 H           1 Y8L       0.0490
     39 H12        24.7087   26.6592   28.6416 H           1 Y8L       0.0507
     40 H13        25.4926   30.9182   26.5281 H           1 Y8L       0.0490
     41 H14        23.7871   30.7444   28.1422 H           1 Y8L       0.0507
     42 H15        22.7732   29.6107   29.8036 H           1 Y8L       0.2141
     43 H16        20.2115   27.2584   32.5166 H           1 Y8L       0.0819
     44 H17        20.5581   24.9022   31.9257 H           1 Y8L       0.0541
     45 H18        23.7094   19.8594   29.5066 H           1 Y8L       0.0582
     46 H19        22.8714   20.1601   31.0280 H           1 Y8L       0.0582
     47 H20        24.5405   20.7288   30.7934 H           1 Y8L       0.0582
     48 H21        22.8755   23.8886   32.5771 H           1 Y8L       0.0473
     49 H22        24.0958   22.6632   32.2785 H           1 Y8L       0.0473
     50 H23        22.4095   22.1817   32.5782 H           1 Y8L       0.0473
@<TRIPOS>BOND
     1     1     2   1
     2     1     6   1
     3     2     3   1
     4     3     4   1
     5     4     5   1
     6     5     6   1
     7     6     7   1
     8     7     8  ar
     9     7    10  ar
    10     8     9  ar
    11     9    12  ar
    12    10    11  ar
    13    11    12  ar
    14    12    13   1
    15    13    14   1
    16    14    15  ar
    17    14    16  ar
    18    15    19  ar
    19    16    17  ar
    20    17    18  ar
    21    18    19  ar
    22    19    20   1
    23    20    21   1
    24    20    26   2
    25    21    22   1
    26    22    23   2
    27    22    24  am
    28    24    25   1
    29    24    26   1
    30    26    27   1
    31     1    28   1
    32     1    29   1
    33     2    30   1
    34     2    31   1
    35     3    32   1
    36     3    33   1
    37     4    34   1
    38     4    35   1
    39     5    36   1
    40     5    37   1
    41     8    38   1
    42     9    39   1
    43    10    40   1
    44    11    41   1
    45    13    42   1
    46    17    43   1
    47    18    44   1
    48    25    45   1
    49    25    46   1
    50    25    47   1
    51    27    48   1
    52    27    49   1
    53    27    50   1
@<TRIPOS>SUBSTRUCTURE
     1  Y8L      1

