@<TRIPOS>MOLECULE
2xnb_ligand_019
    50    53
SMALL
GAST_HUCK
****
This file was generated by PARSER (from files_GN.cpp)

@<TRIPOS>ATOM
      1 C17        24.7960   28.6586   27.8839 C.3         1 Y8L       0.0648
      2 C18        24.1263   29.7096   28.8011 C.3         1 Y8L      -0.0139
      3 N19        23.1140   29.0629   29.6468 N.4         1 Y8L       0.2297
      4 C20        22.0358   28.4774   28.8359 C.3         1 Y8L      -0.0139
      5 C21        22.5629   27.5227   27.7219 C.3         1 Y8L       0.0648
      6 N16        23.9340   27.6859   27.2306 N.pl3       1 Y8L      -0.3045
      7 C12        24.4591   26.8305   26.2657 C.ar        1 Y8L       0.0297
      8 C13        25.8144   26.3801   26.2680 C.ar        1 Y8L      -0.0528
      9 C14        26.3181   25.4599   25.3226 C.ar        1 Y8L      -0.0489
     10 C11        23.6748   26.3395   25.1856 C.ar        1 Y8L      -0.0528
     11 C10        24.1787   25.4456   24.2258 C.ar        1 Y8L      -0.0489
     12 C9         25.4848   24.9251   24.3204 C.ar        1 Y8L       0.0527
     13 N7         25.9845   23.9947   23.4432 N.pl3       1 Y8L      -0.2529
     14 C4         25.3490   22.8993   22.9501 C.ar        1 Y8L       0.1821
     15 N5         25.9054   22.2485   21.8973 N.ar        1 Y8L      -0.2810
     16 N3         24.1582   22.4389   23.4174 N.ar        1 Y8L      -0.2768
     17 C2         23.5076   21.3968   22.8500 C.ar        1 Y8L      -0.0078
     18 C1         24.0676   20.7538   21.7354 C.ar        1 Y8L      -0.0412
     19 C6         25.3274   21.1866   21.2663 C.ar        1 Y8L       0.0192
     20 C15        25.9583   20.6713   20.1052 C.2         1 Y8L       0.0635
     21 S23        27.1758   21.5745   19.3011 S.3         1 Y8L       0.0011
     22 C24        27.3863   20.4788   18.0064 C.2         1 Y8L       0.2827
     23 O28        28.1974   20.6921   17.0758 O.2         1 Y8L      -0.3738
     24 N25        26.5540   19.4212   18.1961 N.am        1 Y8L      -0.1962
     25 C29        26.5063   18.3306   17.2553 C.3         1 Y8L       0.0552
     26 C26        25.7817   19.4926   19.3403 C.2         1 Y8L       0.0878
     27 C27        24.8694   18.4021   19.7748 C.3         1 Y8L       0.0050
     28 H1         25.5177   28.1090   28.4927 H           1 Y8L       0.0562
     29 H2         25.3458   29.2226   27.1243 H           1 Y8L       0.0562
     30 H3         23.6627   30.4969   28.1995 H           1 Y8L       0.0833
     31 H4         24.8767   30.1779   29.4445 H           1 Y8L       0.0833
     32 H5         22.7063   29.7661   30.2629 H           1 Y8L       0.2015
     33 H6         23.5560   28.3355   30.2145 H           1 Y8L       0.2015
     34 H7         21.4626   29.2947   28.3861 H           1 Y8L       0.0833
     35 H8         21.3573   27.9408   29.5050 H           1 Y8L       0.0833
     36 H9         21.8538   27.6216   26.8974 H           1 Y8L       0.0562
     37 H10        22.4758   26.5016   28.1082 H           1 Y8L       0.0562
     38 H11        26.4664   26.6872   26.9908 H           1 Y8L       0.0490
     39 H12        27.2936   25.1540   25.3918 H           1 Y8L       0.0507
     40 H13        22.7163   26.6487   25.0523 H           1 Y8L       0.0490
     41 H14        23.5812   25.1889   23.4392 H           1 Y8L       0.0507
     42 H15        26.8937   24.1382   23.1297 H           1 Y8L       0.2141
     43 H16        22.6001   21.1076   23.2178 H           1 Y8L       0.0819
     44 H17        23.5313   20.0304   21.2607 H           1 Y8L       0.0541
     45 H18        27.1521   18.4813   16.3873 H           1 Y8L       0.0582
     46 H19        25.4867   18.2023   16.8861 H           1 Y8L       0.0582
     47 H20        26.8274   17.4089   17.7431 H           1 Y8L       0.0582
     48 H21        24.8149   18.3472   20.8624 H           1 Y8L       0.0473
     49 H22        25.2087   17.4266   19.4315 H           1 Y8L       0.0473
     50 H23        23.8719   18.5771   19.3726 H           1 Y8L       0.0473
@<TRIPOS>BOND
     1     1     2   1
     2     1     6   1
     3     2     3   1
     4     3     4   1
     5     4     5   1
     6     5     6   1
     7     6     7   1
     8     7     8  ar
     9     7    10  ar
    10     8     9  ar
    11     9    12  ar
    12    10    11  ar
    13    11    12  ar
    14    12    13   1
    15    13    14   1
    16    14    15  ar
    17    14    16  ar
    18    15    19  ar
    19    16    17  ar
    20    17    18  ar
    21    18    19  ar
    22    19    20   1
    23    20    21   1
    24    20    26   2
    25    21    22   1
    26    22    23   2
    27    22    24  am
    28    24    25   1
    29    24    26   1
    30    26    27   1
    31     1    28   1
    32     1    29   1
    33     2    30   1
    34     2    31   1
    35     3    32   1
    36     3    33   1
    37     4    34   1
    38     4    35   1
    39     5    36   1
    40     5    37   1
    41     8    38   1
    42     9    39   1
    43    10    40   1
    44    11    41   1
    45    13    42   1
    46    17    43   1
    47    18    44   1
    48    25    45   1
    49    25    46   1
    50    25    47   1
    51    27    48   1
    52    27    49   1
    53    27    50   1
@<TRIPOS>SUBSTRUCTURE
     1  Y8L      1

