@<TRIPOS>MOLECULE
2xnb_ligand_038
    50    53
SMALL
GAST_HUCK
****
This file was generated by PARSER (from files_GN.cpp)

@<TRIPOS>ATOM
      1 C17        25.8312   20.8593   19.3304 C.3         1 Y8L       0.0648
      2 C18        27.0811   20.4907   18.4890 C.3         1 Y8L      -0.0139
      3 N19        27.2904   19.0267   18.5194 N.4         1 Y8L       0.2297
      4 C20        27.4277   18.4874   19.8880 C.3         1 Y8L      -0.0139
      5 C21        26.1738   18.8529   20.7238 C.3         1 Y8L       0.0648
      6 N16        25.8478   20.2662   20.6532 N.pl3       1 Y8L      -0.3045
      7 C12        24.9212   20.7420   21.5355 C.ar        1 Y8L       0.0297
      8 C13        23.5655   20.3431   21.4733 C.ar        1 Y8L      -0.0528
      9 C14        22.6413   20.7974   22.4284 C.ar        1 Y8L      -0.0489
     10 C11        25.3086   21.6689   22.5304 C.ar        1 Y8L      -0.0528
     11 C10        24.3785   22.1288   23.4830 C.ar        1 Y8L      -0.0489
     12 C9         23.0422   21.6760   23.4583 C.ar        1 Y8L       0.0527
     13 N7         22.1573   22.0615   24.4195 N.pl3       1 Y8L      -0.2529
     14 C4         21.9233   21.3543   25.5548 C.ar        1 Y8L       0.1821
     15 N5         20.9756   21.7882   26.4282 N.ar        1 Y8L      -0.2810
     16 N3         22.6248   20.2268   25.8625 N.ar        1 Y8L      -0.2768
     17 C2         22.4142   19.5307   27.0038 C.ar        1 Y8L      -0.0078
     18 C1         21.4362   19.9697   27.9105 C.ar        1 Y8L      -0.0412
     19 C6         20.6898   21.1246   27.5865 C.ar        1 Y8L       0.0192
     20 C15        19.7161   21.6450   28.4675 C.2         1 Y8L       0.0635
     21 S23        19.8588   23.1943   29.1929 S.3         1 Y8L       0.0011
     22 C24        18.4070   23.0806   30.0981 C.2         1 Y8L       0.2827
     23 O28        17.9957   23.9996   30.8458 O.2         1 Y8L      -0.3738
     24 N25        17.8181   21.8826   29.8417 N.am        1 Y8L      -0.1962
     25 C29        16.5671   21.5050   30.4518 C.3         1 Y8L       0.0552
     26 C26        18.5111   21.0854   28.9526 C.2         1 Y8L       0.0878
     27 C27        18.0004   19.7630   28.5027 C.3         1 Y8L       0.0050
     28 H1         24.9368   20.5146   18.7957 H           1 Y8L       0.0562
     29 H2         25.7764   21.9519   19.3996 H           1 Y8L       0.0562
     30 H3         27.9659   21.0097   18.8728 H           1 Y8L       0.0833
     31 H4         26.9320   20.7949   17.4524 H           1 Y8L       0.0833
     32 H5         28.1196   18.7683   17.9770 H           1 Y8L       0.2015
     33 H6         26.4796   18.5827   18.0831 H           1 Y8L       0.2015
     34 H7         28.3335   18.8864   20.3561 H           1 Y8L       0.0833
     35 H8         27.5326   17.4024   19.8247 H           1 Y8L       0.0833
     36 H9         26.3581   18.5523   21.7632 H           1 Y8L       0.0562
     37 H10        25.3303   18.2592   20.3498 H           1 Y8L       0.0562
     38 H11        23.2430   19.7168   20.7344 H           1 Y8L       0.0490
     39 H12        21.6699   20.4818   22.3762 H           1 Y8L       0.0507
     40 H13        26.2800   21.9858   22.5827 H           1 Y8L       0.0490
     41 H14        24.6927   22.7620   24.2267 H           1 Y8L       0.0507
     42 H15        21.6794   22.8988   24.2976 H           1 Y8L       0.2141
     43 H16        22.9830   18.7075   27.1988 H           1 Y8L       0.0819
     44 H17        21.2886   19.4520   28.7815 H           1 Y8L       0.0541
     45 H18        16.1690   22.2672   31.1266 H           1 Y8L       0.0582
     46 H19        16.6961   20.5882   31.0319 H           1 Y8L       0.0582
     47 H20        15.8185   21.3347   29.6771 H           1 Y8L       0.0582
     48 H21        18.6195   19.3032   27.7315 H           1 Y8L       0.0473
     49 H22        17.0021   19.8781   28.0806 H           1 Y8L       0.0473
     50 H23        17.9557   19.0810   29.3547 H           1 Y8L       0.0473
@<TRIPOS>BOND
     1     1     2   1
     2     1     6   1
     3     2     3   1
     4     3     4   1
     5     4     5   1
     6     5     6   1
     7     6     7   1
     8     7     8  ar
     9     7    10  ar
    10     8     9  ar
    11     9    12  ar
    12    10    11  ar
    13    11    12  ar
    14    12    13   1
    15    13    14   1
    16    14    15  ar
    17    14    16  ar
    18    15    19  ar
    19    16    17  ar
    20    17    18  ar
    21    18    19  ar
    22    19    20   1
    23    20    21   1
    24    20    26   2
    25    21    22   1
    26    22    23   2
    27    22    24  am
    28    24    25   1
    29    24    26   1
    30    26    27   1
    31     1    28   1
    32     1    29   1
    33     2    30   1
    34     2    31   1
    35     3    32   1
    36     3    33   1
    37     4    34   1
    38     4    35   1
    39     5    36   1
    40     5    37   1
    41     8    38   1
    42     9    39   1
    43    10    40   1
    44    11    41   1
    45    13    42   1
    46    17    43   1
    47    18    44   1
    48    25    45   1
    49    25    46   1
    50    25    47   1
    51    27    48   1
    52    27    49   1
    53    27    50   1
@<TRIPOS>SUBSTRUCTURE
     1  Y8L      1

