@<TRIPOS>MOLECULE
2xnb_ligand_035
    50    53
SMALL
GAST_HUCK
****
This file was generated by PARSER (from files_GN.cpp)

@<TRIPOS>ATOM
      1 C17        26.0046   20.1307   21.4273 C.3         1 Y8L       0.0648
      2 C18        26.2924   20.2758   19.9136 C.3         1 Y8L      -0.0139
      3 N19        27.1510   21.4561   19.6703 N.4         1 Y8L       0.2297
      4 C20        26.6293   22.7079   20.2671 C.3         1 Y8L      -0.0139
      5 C21        26.3404   22.5358   21.7839 C.3         1 Y8L       0.0648
      6 N16        25.4913   21.3749   21.9774 N.pl3       1 Y8L      -0.3045
      7 C12        24.2656   21.4647   22.5926 C.ar        1 Y8L       0.0297
      8 C13        24.0702   22.2727   23.7434 C.ar        1 Y8L      -0.0528
      9 C14        22.8146   22.3548   24.3791 C.ar        1 Y8L      -0.0489
     10 C11        23.1411   20.7615   22.0922 C.ar        1 Y8L      -0.0528
     11 C10        21.8807   20.8543   22.7119 C.ar        1 Y8L      -0.0489
     12 C9         21.7153   21.6371   23.8708 C.ar        1 Y8L       0.0527
     13 N7         20.4984   21.7211   24.4702 N.pl3       1 Y8L      -0.2529
     14 C4         20.0398   20.8454   25.3948 C.ar        1 Y8L       0.1821
     15 N5         18.7580   20.9678   25.8351 N.ar        1 Y8L      -0.2810
     16 N3         20.8108   19.8457   25.9040 N.ar        1 Y8L      -0.2768
     17 C2         20.3433   18.9822   26.8368 C.ar        1 Y8L      -0.0078
     18 C1         19.0221   19.1022   27.2955 C.ar        1 Y8L      -0.0412
     19 C6         18.2127   20.1283   26.7597 C.ar        1 Y8L       0.0192
     20 C15        16.8753   20.2830   27.1931 C.2         1 Y8L       0.0635
     21 S23        16.4345   20.1864   28.8500 S.3         1 Y8L       0.0011
     22 C24        14.7589   20.4082   28.5856 C.2         1 Y8L       0.2827
     23 O28        13.9294   20.4203   29.5230 O.2         1 Y8L      -0.3738
     24 N25        14.5343   20.5272   27.2503 N.am        1 Y8L      -0.1962
     25 C29        13.1985   20.6556   26.7187 C.3         1 Y8L       0.0552
     26 C26        15.6735   20.4746   26.4725 C.2         1 Y8L       0.0878
     27 C27        15.6199   20.5339   24.9905 C.3         1 Y8L       0.0050
     28 H1         26.9444   19.8936   21.9362 H           1 Y8L       0.0562
     29 H2         25.3451   19.2751   21.5881 H           1 Y8L       0.0562
     30 H3         25.3554   20.3765   19.3601 H           1 Y8L       0.0833
     31 H4         26.8111   19.3855   19.5513 H           1 Y8L       0.0833
     32 H5         27.2567   21.5869   18.6614 H           1 Y8L       0.2015
     33 H6         28.0706   21.2693   20.0754 H           1 Y8L       0.2015
     34 H7         25.7104   22.9914   19.7462 H           1 Y8L       0.0833
     35 H8         27.3632   23.5023   20.1174 H           1 Y8L       0.0833
     36 H9         25.8857   23.4658   22.1358 H           1 Y8L       0.0562
     37 H10        27.2798   22.3985   22.3264 H           1 Y8L       0.0562
     38 H11        24.8561   22.7703   24.1690 H           1 Y8L       0.0490
     39 H12        22.7090   22.9333   25.2171 H           1 Y8L       0.0507
     40 H13        23.2129   20.2185   21.2300 H           1 Y8L       0.0490
     41 H14        21.0847   20.3539   22.3087 H           1 Y8L       0.0507
     42 H15        19.9105   22.4398   24.1909 H           1 Y8L       0.2141
     43 H16        20.9500   18.2463   27.1998 H           1 Y8L       0.0819
     44 H17        18.6607   18.4403   27.9860 H           1 Y8L       0.0541
     45 H18        12.4291   20.6669   27.4940 H           1 Y8L       0.0582
     46 H19        12.9826   19.8124   26.0599 H           1 Y8L       0.0582
     47 H20        13.1044   21.5822   26.1490 H           1 Y8L       0.0582
     48 H21        16.6017   20.4877   24.5259 H           1 Y8L       0.0473
     49 H22        15.1401   21.4607   24.6746 H           1 Y8L       0.0473
     50 H23        15.0394   19.6882   24.6216 H           1 Y8L       0.0473
@<TRIPOS>BOND
     1     1     2   1
     2     1     6   1
     3     2     3   1
     4     3     4   1
     5     4     5   1
     6     5     6   1
     7     6     7   1
     8     7     8  ar
     9     7    10  ar
    10     8     9  ar
    11     9    12  ar
    12    10    11  ar
    13    11    12  ar
    14    12    13   1
    15    13    14   1
    16    14    15  ar
    17    14    16  ar
    18    15    19  ar
    19    16    17  ar
    20    17    18  ar
    21    18    19  ar
    22    19    20   1
    23    20    21   1
    24    20    26   2
    25    21    22   1
    26    22    23   2
    27    22    24  am
    28    24    25   1
    29    24    26   1
    30    26    27   1
    31     1    28   1
    32     1    29   1
    33     2    30   1
    34     2    31   1
    35     3    32   1
    36     3    33   1
    37     4    34   1
    38     4    35   1
    39     5    36   1
    40     5    37   1
    41     8    38   1
    42     9    39   1
    43    10    40   1
    44    11    41   1
    45    13    42   1
    46    17    43   1
    47    18    44   1
    48    25    45   1
    49    25    46   1
    50    25    47   1
    51    27    48   1
    52    27    49   1
    53    27    50   1
@<TRIPOS>SUBSTRUCTURE
     1  Y8L      1

