@<TRIPOS>MOLECULE
2xnb_ligand_030
    50    53
SMALL
GAST_HUCK
****
This file was generated by PARSER (from files_GN.cpp)

@<TRIPOS>ATOM
      1 C17        21.7786   24.8271   28.4207 C.3         1 Y8L       0.0648
      2 C18        21.1412   26.1667   28.8863 C.3         1 Y8L      -0.0139
      3 N19        19.9314   25.9399   29.7106 N.4         1 Y8L       0.2297
      4 C20        18.9393   25.0499   29.0670 C.3         1 Y8L      -0.0139
      5 C21        19.6123   23.7202   28.6477 C.3         1 Y8L       0.0648
      6 N16        20.7726   23.9723   27.8063 N.pl3       1 Y8L      -0.3045
      7 C12        20.9174   23.4281   26.5445 C.ar        1 Y8L       0.0297
      8 C13        19.7976   23.1067   25.7296 C.ar        1 Y8L      -0.0528
      9 C14        19.9405   22.5455   24.4441 C.ar        1 Y8L      -0.0489
     10 C11        22.1953   23.1474   25.9898 C.ar        1 Y8L      -0.0528
     11 C10        22.3465   22.5529   24.7233 C.ar        1 Y8L      -0.0489
     12 C9         21.2189   22.2397   23.9428 C.ar        1 Y8L       0.0527
     13 N7         21.3657   21.6858   22.7071 N.pl3       1 Y8L      -0.2529
     14 C4         21.6490   20.3821   22.4846 C.ar        1 Y8L       0.1821
     15 N5         21.8704   19.9602   21.2089 N.ar        1 Y8L      -0.2810
     16 N3         21.6970   19.4665   23.4928 N.ar        1 Y8L      -0.2768
     17 C2         21.9333   18.1519   23.2666 C.ar        1 Y8L      -0.0078
     18 C1         22.1506   17.7043   21.9551 C.ar        1 Y8L      -0.0412
     19 C6         22.1352   18.6571   20.9124 C.ar        1 Y8L       0.0192
     20 C15        22.3602   18.2613   19.5794 C.2         1 Y8L       0.0635
     21 S23        21.4409   17.0307   18.8153 S.3         1 Y8L       0.0011
     22 C24        22.3200   17.0747   17.3469 C.2         1 Y8L       0.2827
     23 O28        22.0500   16.3259   16.3810 O.2         1 Y8L      -0.3738
     24 N25        23.3143   17.9977   17.4517 N.am        1 Y8L      -0.1962
     25 C29        24.2645   18.2128   16.3892 C.3         1 Y8L       0.0552
     26 C26        23.3453   18.6715   18.6557 C.2         1 Y8L       0.0878
     27 C27        24.3759   19.6932   18.9792 C.3         1 Y8L       0.0050
     28 H1         22.2135   24.3139   29.2841 H           1 Y8L       0.0562
     29 H2         22.5972   25.0920   27.7479 H           1 Y8L       0.0562
     30 H3         20.8745   26.7713   28.0143 H           1 Y8L       0.0833
     31 H4         21.8643   26.7299   29.4814 H           1 Y8L       0.0833
     32 H5         19.4901   26.8419   29.9170 H           1 Y8L       0.2015
     33 H6         20.2208   25.5141   30.5941 H           1 Y8L       0.2015
     34 H7         18.5068   25.5421   28.1911 H           1 Y8L       0.0833
     35 H8         18.1383   24.8509   29.7823 H           1 Y8L       0.0833
     36 H9         18.8660   23.0654   28.1974 H           1 Y8L       0.0562
     37 H10        19.9493   23.2038   29.5519 H           1 Y8L       0.0562
     38 H11        18.8503   23.3370   26.0337 H           1 Y8L       0.0490
     39 H12        19.1088   22.3579   23.8774 H           1 Y8L       0.0507
     40 H13        23.0457   23.3165   26.5249 H           1 Y8L       0.0490
     41 H14        23.2838   22.3562   24.3700 H           1 Y8L       0.0507
     42 H15        21.2380   22.2651   21.9384 H           1 Y8L       0.2141
     43 H16        21.9500   17.4959   24.0523 H           1 Y8L       0.0819
     44 H17        22.3337   16.7143   21.7729 H           1 Y8L       0.0541
     45 H18        24.0845   17.5747   15.5209 H           1 Y8L       0.0582
     46 H19        25.2760   18.0033   16.7455 H           1 Y8L       0.0582
     47 H20        24.2144   19.2495   16.0540 H           1 Y8L       0.0582
     48 H21        24.2197   20.1603   19.9520 H           1 Y8L       0.0473
     49 H22        24.3624   20.4793   18.2247 H           1 Y8L       0.0473
     50 H23        25.3606   19.2266   18.9808 H           1 Y8L       0.0473
@<TRIPOS>BOND
     1     1     2   1
     2     1     6   1
     3     2     3   1
     4     3     4   1
     5     4     5   1
     6     5     6   1
     7     6     7   1
     8     7     8  ar
     9     7    10  ar
    10     8     9  ar
    11     9    12  ar
    12    10    11  ar
    13    11    12  ar
    14    12    13   1
    15    13    14   1
    16    14    15  ar
    17    14    16  ar
    18    15    19  ar
    19    16    17  ar
    20    17    18  ar
    21    18    19  ar
    22    19    20   1
    23    20    21   1
    24    20    26   2
    25    21    22   1
    26    22    23   2
    27    22    24  am
    28    24    25   1
    29    24    26   1
    30    26    27   1
    31     1    28   1
    32     1    29   1
    33     2    30   1
    34     2    31   1
    35     3    32   1
    36     3    33   1
    37     4    34   1
    38     4    35   1
    39     5    36   1
    40     5    37   1
    41     8    38   1
    42     9    39   1
    43    10    40   1
    44    11    41   1
    45    13    42   1
    46    17    43   1
    47    18    44   1
    48    25    45   1
    49    25    46   1
    50    25    47   1
    51    27    48   1
    52    27    49   1
    53    27    50   1
@<TRIPOS>SUBSTRUCTURE
     1  Y8L      1

