@<TRIPOS>MOLECULE
2xnb_ligand_031
    50    53
SMALL
GAST_HUCK
****
This file was generated by PARSER (from files_GN.cpp)

@<TRIPOS>ATOM
      1 C17        27.0025   23.5274   22.3190 C.3         1 Y8L       0.0648
      2 C18        27.3685   24.5784   21.2390 C.3         1 Y8L      -0.0139
      3 N19        28.3555   25.5310   21.7897 N.4         1 Y8L       0.2297
      4 C20        27.9020   26.1788   23.0405 C.3         1 Y8L      -0.0139
      5 C21        27.4293   25.1360   24.0941 C.3         1 Y8L       0.0648
      6 N16        26.4746   24.1771   23.5258 N.pl3       1 Y8L      -0.3045
      7 C12        25.2421   23.8633   24.0960 C.ar        1 Y8L       0.0297
      8 C13        24.8218   24.3591   25.3693 C.ar        1 Y8L      -0.0528
      9 C14        23.5676   24.0460   25.9351 C.ar        1 Y8L      -0.0489
     10 C11        24.2983   23.0093   23.4558 C.ar        1 Y8L      -0.0528
     11 C10        23.0678   22.6458   24.0388 C.ar        1 Y8L      -0.0489
     12 C9         22.6832   23.1635   25.2904 C.ar        1 Y8L       0.0527
     13 N7         21.4676   22.8916   25.8442 N.pl3       1 Y8L      -0.2529
     14 C4         20.9019   21.6705   25.9904 C.ar        1 Y8L       0.1821
     15 N5         19.6724   21.5793   26.5619 N.ar        1 Y8L      -0.2810
     16 N3         21.5409   20.5153   25.6304 N.ar        1 Y8L      -0.2768
     17 C2         20.9849   19.2946   25.8332 C.ar        1 Y8L      -0.0078
     18 C1         19.7184   19.1912   26.4310 C.ar        1 Y8L      -0.0412
     19 C6         19.0582   20.3857   26.7897 C.ar        1 Y8L       0.0192
     20 C15        17.7504   20.3654   27.2898 C.2         1 Y8L       0.0635
     21 S23        17.3567   20.4028   28.9580 S.3         1 Y8L       0.0011
     22 C24        15.6637   20.3062   28.7080 C.2         1 Y8L       0.2827
     23 O28        14.8410   20.2971   29.6556 O.2         1 Y8L      -0.3738
     24 N25        15.4098   20.2307   27.3745 N.am        1 Y8L      -0.1962
     25 C29        14.0732   20.1052   26.8485 C.3         1 Y8L       0.0552
     26 C26        16.5359   20.2789   26.5805 C.2         1 Y8L       0.0878
     27 C27        16.4839   20.2635   25.0955 C.3         1 Y8L       0.0050
     28 H1         27.9098   22.9804   22.5962 H           1 Y8L       0.0562
     29 H2         26.3647   22.7787   21.8554 H           1 Y8L       0.0562
     30 H3         26.4751   25.1186   20.9066 H           1 Y8L       0.0833
     31 H4         27.8092   24.0735   20.3754 H           1 Y8L       0.0833
     32 H5         28.5540   26.2642   21.1002 H           1 Y8L       0.2015
     33 H6         29.2166   25.0147   21.9911 H           1 Y8L       0.2015
     34 H7         27.0859   26.8704   22.8096 H           1 Y8L       0.0833
     35 H8         28.7326   26.7547   23.4541 H           1 Y8L       0.0833
     36 H9         27.0453   25.7282   24.9256 H           1 Y8L       0.0562
     37 H10        28.3001   24.5825   24.4663 H           1 Y8L       0.0562
     38 H11        25.4348   24.9357   25.9420 H           1 Y8L       0.0490
     39 H12        23.3178   24.4325   26.8488 H           1 Y8L       0.0507
     40 H13        24.4476   22.6596   22.5150 H           1 Y8L       0.0490
     41 H14        22.4353   22.0395   23.5168 H           1 Y8L       0.0507
     42 H15        20.9995   23.6406   26.2444 H           1 Y8L       0.2141
     43 H16        21.4922   18.4584   25.5466 H           1 Y8L       0.0819
     44 H17        19.2911   18.2746   26.5851 H           1 Y8L       0.0541
     45 H18        13.3102   20.0513   27.6284 H           1 Y8L       0.0582
     46 H19        13.9942   19.1946   26.2519 H           1 Y8L       0.0582
     47 H20        13.8384   20.9623   26.2151 H           1 Y8L       0.0582
     48 H21        17.4680   20.3804   24.6394 H           1 Y8L       0.0473
     49 H22        15.8558   21.0827   24.7399 H           1 Y8L       0.0473
     50 H23        16.0617   19.3180   24.7522 H           1 Y8L       0.0473
@<TRIPOS>BOND
     1     1     2   1
     2     1     6   1
     3     2     3   1
     4     3     4   1
     5     4     5   1
     6     5     6   1
     7     6     7   1
     8     7     8  ar
     9     7    10  ar
    10     8     9  ar
    11     9    12  ar
    12    10    11  ar
    13    11    12  ar
    14    12    13   1
    15    13    14   1
    16    14    15  ar
    17    14    16  ar
    18    15    19  ar
    19    16    17  ar
    20    17    18  ar
    21    18    19  ar
    22    19    20   1
    23    20    21   1
    24    20    26   2
    25    21    22   1
    26    22    23   2
    27    22    24  am
    28    24    25   1
    29    24    26   1
    30    26    27   1
    31     1    28   1
    32     1    29   1
    33     2    30   1
    34     2    31   1
    35     3    32   1
    36     3    33   1
    37     4    34   1
    38     4    35   1
    39     5    36   1
    40     5    37   1
    41     8    38   1
    42     9    39   1
    43    10    40   1
    44    11    41   1
    45    13    42   1
    46    17    43   1
    47    18    44   1
    48    25    45   1
    49    25    46   1
    50    25    47   1
    51    27    48   1
    52    27    49   1
    53    27    50   1
@<TRIPOS>SUBSTRUCTURE
     1  Y8L      1

