@<TRIPOS>MOLECULE
2xnb_ligand_008
    50    53
SMALL
GAST_HUCK
****
This file was generated by PARSER (from files_GN.cpp)

@<TRIPOS>ATOM
      1 C17        24.2765   24.2658   24.4533 C.3         1 Y8L       0.0648
      2 C18        24.1384   22.9158   23.7030 C.3         1 Y8L      -0.0139
      3 N19        22.8145   22.3161   23.9320 N.4         1 Y8L       0.2297
      4 C20        22.5859   22.0794   25.3672 C.3         1 Y8L      -0.0139
      5 C21        22.5103   23.4437   26.0831 C.3         1 Y8L       0.0648
      6 N16        23.5193   24.4163   25.6955 N.pl3       1 Y8L      -0.3045
      7 C12        23.6136   25.6044   26.3839 C.ar        1 Y8L       0.0297
      8 C13        24.8743   26.1056   26.7896 C.ar        1 Y8L      -0.0528
      9 C14        24.9943   27.3334   27.4557 C.ar        1 Y8L      -0.0489
     10 C11        22.4737   26.3812   26.7232 C.ar        1 Y8L      -0.0528
     11 C10        22.5927   27.6329   27.3497 C.ar        1 Y8L      -0.0489
     12 C9         23.8601   28.1472   27.6862 C.ar        1 Y8L       0.0527
     13 N7         23.9299   29.3878   28.2559 N.pl3       1 Y8L      -0.2529
     14 C4         24.9260   30.2930   28.1220 C.ar        1 Y8L       0.1821
     15 N5         25.9827   30.1183   27.2865 N.ar        1 Y8L      -0.2810
     16 N3         24.8784   31.4265   28.8632 N.ar        1 Y8L      -0.2768
     17 C2         25.8665   32.3535   28.8073 C.ar        1 Y8L      -0.0078
     18 C1         26.9731   32.1635   27.9594 C.ar        1 Y8L      -0.0412
     19 C6         27.0101   30.9989   27.1598 C.ar        1 Y8L       0.0192
     20 C15        28.0829   30.6308   26.3104 C.2         1 Y8L       0.0635
     21 S23        28.6092   29.0002   26.1717 S.3         1 Y8L       0.0011
     22 C24        29.9116   29.3282   25.1106 C.2         1 Y8L       0.2827
     23 O28        30.6804   28.4408   24.6735 O.2         1 Y8L      -0.3738
     24 N25        29.9427   30.6646   24.8694 N.am        1 Y8L      -0.1962
     25 C29        30.9708   31.2513   24.0558 C.3         1 Y8L       0.0552
     26 C26        28.9347   31.3883   25.4739 C.2         1 Y8L       0.0878
     27 C27        28.7213   32.8348   25.2125 C.3         1 Y8L       0.0050
     28 H1         23.9383   25.0550   23.7742 H           1 Y8L       0.0562
     29 H2         25.3498   24.4165   24.6120 H           1 Y8L       0.0562
     30 H3         24.9134   22.2184   24.0381 H           1 Y8L       0.0833
     31 H4         24.2745   23.0669   22.6286 H           1 Y8L       0.0833
     32 H5         22.7404   21.4322   23.4214 H           1 Y8L       0.2015
     33 H6         22.1019   22.9684   23.5943 H           1 Y8L       0.2015
     34 H7         23.3913   21.4723   25.7926 H           1 Y8L       0.0833
     35 H8         21.6487   21.5331   25.4999 H           1 Y8L       0.0833
     36 H9         22.5873   23.2617   27.1593 H           1 Y8L       0.0562
     37 H10        21.5118   23.8468   25.8861 H           1 Y8L       0.0562
     38 H11        25.7254   25.5535   26.6692 H           1 Y8L       0.0490
     39 H12        25.9198   27.6114   27.7857 H           1 Y8L       0.0507
     40 H13        21.5375   26.0787   26.4508 H           1 Y8L       0.0490
     41 H14        21.7482   28.1861   27.5237 H           1 Y8L       0.0507
     42 H15        23.1647   29.6768   28.7868 H           1 Y8L       0.2141
     43 H16        25.7991   33.1777   29.4001 H           1 Y8L       0.0819
     44 H17        27.7349   32.8444   27.9602 H           1 Y8L       0.0541
     45 H18        31.7081   30.5344   23.6922 H           1 Y8L       0.0582
     46 H19        31.5043   32.0005   24.6361 H           1 Y8L       0.0582
     47 H20        30.5301   31.7303   23.1879 H           1 Y8L       0.0582
     48 H21        27.7524   33.1866   25.5624 H           1 Y8L       0.0473
     49 H22        28.7582   33.0374   24.1434 H           1 Y8L       0.0473
     50 H23        29.5007   33.4128   25.7034 H           1 Y8L       0.0473
@<TRIPOS>BOND
     1     1     2   1
     2     1     6   1
     3     2     3   1
     4     3     4   1
     5     4     5   1
     6     5     6   1
     7     6     7   1
     8     7     8  ar
     9     7    10  ar
    10     8     9  ar
    11     9    12  ar
    12    10    11  ar
    13    11    12  ar
    14    12    13   1
    15    13    14   1
    16    14    15  ar
    17    14    16  ar
    18    15    19  ar
    19    16    17  ar
    20    17    18  ar
    21    18    19  ar
    22    19    20   1
    23    20    21   1
    24    20    26   2
    25    21    22   1
    26    22    23   2
    27    22    24  am
    28    24    25   1
    29    24    26   1
    30    26    27   1
    31     1    28   1
    32     1    29   1
    33     2    30   1
    34     2    31   1
    35     3    32   1
    36     3    33   1
    37     4    34   1
    38     4    35   1
    39     5    36   1
    40     5    37   1
    41     8    38   1
    42     9    39   1
    43    10    40   1
    44    11    41   1
    45    13    42   1
    46    17    43   1
    47    18    44   1
    48    25    45   1
    49    25    46   1
    50    25    47   1
    51    27    48   1
    52    27    49   1
    53    27    50   1
@<TRIPOS>SUBSTRUCTURE
     1  Y8L      1

