@<TRIPOS>MOLECULE
2xnb_ligand_027
    50    53
SMALL
GAST_HUCK
****
This file was generated by PARSER (from files_GN.cpp)

@<TRIPOS>ATOM
      1 C17        30.2427   29.1008   25.2437 C.3         1 Y8L       0.0648
      2 C18        30.8426   30.4385   24.7462 C.3         1 Y8L      -0.0139
      3 N19        29.9932   31.5637   25.1948 N.4         1 Y8L       0.2297
      4 C20        28.5771   31.4319   24.7928 C.3         1 Y8L      -0.0139
      5 C21        27.9911   30.0805   25.2709 C.3         1 Y8L       0.0648
      6 N16        28.8483   28.9855   24.8408 N.pl3       1 Y8L      -0.3045
      7 C12        28.3636   27.9235   24.1106 C.ar        1 Y8L       0.0297
      8 C13        29.1517   27.2611   23.1351 C.ar        1 Y8L      -0.0528
      9 C14        28.6348   26.2046   22.3617 C.ar        1 Y8L      -0.0489
     10 C11        27.0409   27.4418   24.3008 C.ar        1 Y8L      -0.0528
     11 C10        26.5396   26.3504   23.5703 C.ar        1 Y8L      -0.0489
     12 C9         27.3321   25.7288   22.5852 C.ar        1 Y8L       0.0527
     13 N7         26.8429   24.7186   21.8203 N.pl3       1 Y8L      -0.2529
     14 C4         26.4824   23.4984   22.2740 C.ar        1 Y8L       0.1821
     15 N5         25.9567   22.6062   21.3938 N.ar        1 Y8L      -0.2810
     16 N3         26.6731   23.1049   23.5625 N.ar        1 Y8L      -0.2768
     17 C2         26.3527   21.8556   23.9797 C.ar        1 Y8L      -0.0078
     18 C1         25.7975   20.9369   23.0712 C.ar        1 Y8L      -0.0412
     19 C6         25.5929   21.3356   21.7256 C.ar        1 Y8L       0.0192
     20 C15        25.0276   20.4618   20.7488 C.2         1 Y8L       0.0635
     21 S23        24.1493   19.0568   21.2124 S.3         1 Y8L       0.0011
     22 C24        23.8837   18.4735   19.6299 C.2         1 Y8L       0.2827
     23 O28        23.3039   17.3825   19.4190 O.2         1 Y8L      -0.3738
     24 N25        24.4494   19.3378   18.7492 N.am        1 Y8L      -0.1962
     25 C29        24.4425   19.0577   17.3313 C.3         1 Y8L       0.0552
     26 C26        25.0439   20.4447   19.3244 C.2         1 Y8L       0.0878
     27 C27        25.6936   21.4821   18.4762 C.3         1 Y8L       0.0050
     28 H1         30.2831   29.0865   26.3373 H           1 Y8L       0.0562
     29 H2         30.8751   28.2759   24.9106 H           1 Y8L       0.0562
     30 H3         30.9082   30.4339   23.6553 H           1 Y8L       0.0833
     31 H4         31.8458   30.5683   25.1532 H           1 Y8L       0.0833
     32 H5         30.3673   32.4367   24.8153 H           1 Y8L       0.2015
     33 H6         30.0321   31.6067   26.2159 H           1 Y8L       0.2015
     34 H7         28.5068   31.4969   23.7046 H           1 Y8L       0.0833
     35 H8         28.0057   32.2528   25.2259 H           1 Y8L       0.0833
     36 H9         26.9803   30.0271   24.8626 H           1 Y8L       0.0562
     37 H10        27.9141   30.0719   26.3615 H           1 Y8L       0.0562
     38 H11        30.1006   27.5813   22.9278 H           1 Y8L       0.0490
     39 H12        29.2179   25.7747   21.6406 H           1 Y8L       0.0507
     40 H13        26.4404   27.8533   25.0214 H           1 Y8L       0.0490
     41 H14        25.5832   26.0301   23.7494 H           1 Y8L       0.0507
     42 H15        26.8150   24.8627   20.8532 H           1 Y8L       0.2141
     43 H16        26.5219   21.5901   24.9506 H           1 Y8L       0.0819
     44 H17        25.5540   20.0025   23.4073 H           1 Y8L       0.0541
     45 H18        23.9787   18.0981   17.0905 H           1 Y8L       0.0582
     46 H19        25.4664   19.0227   16.9561 H           1 Y8L       0.0582
     47 H20        23.8952   19.8318   16.7908 H           1 Y8L       0.0582
     48 H21        26.0270   22.3556   19.0242 H           1 Y8L       0.0473
     49 H22        24.9949   21.8362   17.7161 H           1 Y8L       0.0473
     50 H23        26.5654   21.0535   17.9798 H           1 Y8L       0.0473
@<TRIPOS>BOND
     1     1     2   1
     2     1     6   1
     3     2     3   1
     4     3     4   1
     5     4     5   1
     6     5     6   1
     7     6     7   1
     8     7     8  ar
     9     7    10  ar
    10     8     9  ar
    11     9    12  ar
    12    10    11  ar
    13    11    12  ar
    14    12    13   1
    15    13    14   1
    16    14    15  ar
    17    14    16  ar
    18    15    19  ar
    19    16    17  ar
    20    17    18  ar
    21    18    19  ar
    22    19    20   1
    23    20    21   1
    24    20    26   2
    25    21    22   1
    26    22    23   2
    27    22    24  am
    28    24    25   1
    29    24    26   1
    30    26    27   1
    31     1    28   1
    32     1    29   1
    33     2    30   1
    34     2    31   1
    35     3    32   1
    36     3    33   1
    37     4    34   1
    38     4    35   1
    39     5    36   1
    40     5    37   1
    41     8    38   1
    42     9    39   1
    43    10    40   1
    44    11    41   1
    45    13    42   1
    46    17    43   1
    47    18    44   1
    48    25    45   1
    49    25    46   1
    50    25    47   1
    51    27    48   1
    52    27    49   1
    53    27    50   1
@<TRIPOS>SUBSTRUCTURE
     1  Y8L      1

