@<TRIPOS>MOLECULE
2xy9_ligand_081
    87    91
SMALL
GAST_HUCK
****
This file was generated by PARSER (from files_GN.cpp)

@<TRIPOS>ATOM
      1 CAQ        15.7919  -11.8786  -21.7140 C.ar        1 MOL      -0.0578
      2 CAK        16.8362  -12.7345  -22.1105 C.ar        1 MOL      -0.0685
      3 CAH        16.7048  -13.5184  -23.2741 C.ar        1 MOL      -0.0687
      4 CAL        15.5197  -13.4531  -24.0276 C.ar        1 MOL      -0.0685
      5 CAR        14.4760  -12.5954  -23.6329 C.ar        1 MOL      -0.0578
      6 CBP        14.6070  -11.7757  -22.4862 C.ar        1 MOL      -0.0130
      7 CBB        13.5549  -10.7674  -22.1773 C.3         1 MOL       0.1113
      8 OBJ        13.4727   -9.7982  -23.2343 O.3         1 MOL      -0.2506
      9 CBM        14.5090   -9.0804  -23.7409 C.2         1 MOL       0.3232
     10 OAB        15.7622   -9.2147  -23.2398 O.2         1 MOL      -0.3774
     11 NBI        14.2985   -8.3916  -24.8839 N.am        1 MOL      -0.2418
     12 CBX        15.3259   -7.8869  -25.7612 C.3         1 MOL       0.1176
     13 CBE        16.1719   -6.7156  -25.1273 C.3         1 MOL       0.0205
     14 CBQ        15.4396   -5.8460  -24.1556 C.ar        1 MOL      -0.0393
     15 CAS        15.7882   -5.8282  -22.7807 C.ar        1 MOL      -0.0602
     16 CAM        15.0270   -5.0938  -21.8546 C.ar        1 MOL      -0.0686
     17 CAI        13.9195   -4.3449  -22.2895 C.ar        1 MOL      -0.0687
     18 CAN        13.5919   -4.3114  -23.6579 C.ar        1 MOL      -0.0686
     19 CAT        14.3463   -5.0557  -24.5827 C.ar        1 MOL      -0.0602
     20 PBY        16.2076   -9.1765  -26.4213 P.3         1 MOL       0.0154
     21 OAG        15.7257  -10.4300  -25.8979 O.co2       1 MOL      -0.6174
     22 OAD        17.5476   -9.2146  -25.8900 O.co2       1 MOL      -0.6174
     23 N          13.5366  -10.4885  -27.8639 N.am        1 MOL      -0.2694
     24 CA         12.2997  -10.9472  -27.2868 C.3         1 MOL       0.1024
     25 C          11.8144  -10.0315  -26.2115 C.2         1 MOL       0.0619
     26 OXT        11.3438   -8.7984  -26.5159 O.co2       1 MOL      -0.5665
     27 O          11.6339  -10.4242  -24.9286 O.co2       1 MOL      -0.5665
     28 CB         12.5060  -12.4221  -26.7801 C.3         1 MOL       0.0108
     29 CG         12.3256  -13.5008  -27.7984 C.ar        1 MOL      -0.0499
     30 CD1        11.2722  -14.4391  -27.6660 C.ar        1 MOL      -0.0686
     31 CE1        11.1146  -15.4921  -28.5830 C.ar        1 MOL      -0.0398
     32 CZ         12.0078  -15.6234  -29.6628 C.ar        1 MOL       0.0805
     33 OH         11.8279  -16.6267  -30.5573 O.3         1 MOL      -0.3376
     34 CE2        13.0645  -14.7075  -29.8088 C.ar        1 MOL      -0.0398
     35 CD2        13.2288  -13.6599  -28.8805 C.ar        1 MOL      -0.0686
     36 CBF        16.3623   -9.4223  -28.0746 C.3         1 MOL       0.0375
     37 CBV        15.1540   -9.1577  -29.0562 C.3         1 MOL       0.0788
     38 CBN        13.8103   -9.3513  -28.4969 C.2         1 MOL       0.1848
     39 OAC        12.9360   -8.5144  -28.6803 O.2         1 MOL      -0.3964
     40 CBC        15.3483   -7.8660  -29.9334 C.3         1 MOL       0.0422
     41 CBS        15.8337   -6.6370  -29.2709 C.2         1 MOL       0.1411
     42 CBA        15.2049   -5.4076  -29.1595 C.2         1 MOL      -0.0269
     43 OBK        17.1009   -6.4792  -28.8203 O.3         1 MOL      -0.1670
     44 NBG        17.2759   -5.2369  -28.4569 N.2         1 MOL      -0.1519
     45 CBU        16.1481   -4.5205  -28.6383 C.2         1 MOL       0.0430
     46 CBT        16.0335   -3.1274  -28.3795 C.ar        1 MOL      -0.0150
     47 CAU        14.8710   -2.4028  -28.7401 C.ar        1 MOL      -0.0551
     48 CAO        14.7811   -1.0198  -28.5109 C.ar        1 MOL      -0.0621
     49 CAJ        15.8454   -0.3326  -27.9059 C.ar        1 MOL      -0.0626
     50 CAP        17.0112   -1.0318  -27.5386 C.ar        1 MOL      -0.0621
     51 CAV        17.1031   -2.4133  -27.7824 C.ar        1 MOL      -0.0551
     52 H1         15.9204  -11.2975  -20.8810 H           1 MOL       0.0557
     53 H2         17.6991  -12.7813  -21.5614 H           1 MOL       0.0599
     54 H3         17.4692  -14.1321  -23.5674 H           1 MOL       0.0559
     55 H4         15.4220  -14.0220  -24.8752 H           1 MOL       0.0599
     56 H5         13.6329  -12.5387  -24.2084 H           1 MOL       0.0557
     57 H6         13.7466  -10.2480  -21.2368 H           1 MOL       0.0776
     58 H7         12.5886  -11.2687  -22.0842 H           1 MOL       0.0776
     59 H8         13.3829   -8.3367  -25.2042 H           1 MOL       0.1888
     60 H9         14.7789   -7.4478  -26.5982 H           1 MOL       0.0787
     61 H10        16.5415   -6.0731  -25.9296 H           1 MOL       0.0465
     62 H11        17.0594   -7.1185  -24.6338 H           1 MOL       0.0465
     63 H12        16.5851   -6.3688  -22.4381 H           1 MOL       0.0557
     64 H13        15.2700   -5.1112  -20.8604 H           1 MOL       0.0599
     65 H14        13.3583   -3.8192  -21.6125 H           1 MOL       0.0559
     66 H15        12.7970   -3.7518  -23.9749 H           1 MOL       0.0599
     67 H16        14.0837   -5.0329  -25.5701 H           1 MOL       0.0557
     68 H17        14.2820  -11.1072  -27.7905 H           1 MOL       0.1876
     69 H18        11.5270  -10.9577  -28.0630 H           1 MOL       0.0747
     70 H19        11.8143  -12.6169  -25.9569 H           1 MOL       0.0446
     71 H20        13.5075  -12.5220  -26.3552 H           1 MOL       0.0446
     72 H21        10.6063  -14.3684  -26.8930 H           1 MOL       0.0530
     73 H22        10.3431  -16.1551  -28.4719 H           1 MOL       0.0525
     74 H23        12.5427  -17.2680  -30.3644 H           1 MOL       0.2458
     75 H24        13.7147  -14.8003  -30.5946 H           1 MOL       0.0525
     76 H25        14.0179  -13.0242  -28.9959 H           1 MOL       0.0530
     77 H26        16.6602  -10.4704  -28.1926 H           1 MOL       0.0495
     78 H27        17.2337   -8.8494  -28.4095 H           1 MOL       0.0495
     79 H28        15.2163   -9.9605  -29.7990 H           1 MOL       0.0581
     80 H29        14.4253   -7.6411  -30.4706 H           1 MOL       0.0513
     81 H30        16.0922   -8.0899  -30.7001 H           1 MOL       0.0513
     82 H31        14.2482   -5.2016  -29.4555 H           1 MOL       0.0289
     83 H32        14.0826   -2.8667  -29.1923 H           1 MOL       0.0616
     84 H33        13.9453   -0.5095  -28.8009 H           1 MOL       0.0615
     85 H34        15.7777    0.6747  -27.7400 H           1 MOL       0.0610
     86 H35        17.7914   -0.5324  -27.1078 H           1 MOL       0.0615
     87 H36        17.9692   -2.8905  -27.5133 H           1 MOL       0.0616
@<TRIPOS>BOND
     1     1     2  ar
     2     6     1  ar
     3     2     3  ar
     4     4     3  ar
     5     5     4  ar
     6     6     5  ar
     7     7     6   1
     8     8     7   1
     9     9     8   1
    10     9    10   2
    11    11     9  am
    12    12    11   1
    13    12    13   1
    14    20    12   1
    15    13    14   1
    16    14    15  ar
    17    14    19  ar
    18    15    16  ar
    19    16    17  ar
    20    18    17  ar
    21    19    18  ar
    22    20    21  ar
    23    20    22  ar
    24    36    20   1
    25    23    24   1
    26    38    23  am
    27    24    25   1
    28    24    28   1
    29    25    26  ar
    30    25    27  ar
    31    28    29   1
    32    29    30  ar
    33    29    35  ar
    34    30    31  ar
    35    31    32  ar
    36    32    33   1
    37    34    32  ar
    38    35    34  ar
    39    37    36   1
    40    37    38   1
    41    37    40   1
    42    38    39   2
    43    40    41   1
    44    41    42   2
    45    41    43   1
    46    42    45   1
    47    43    44   1
    48    44    45   2
    49    45    46   1
    50    46    47  ar
    51    46    51  ar
    52    47    48  ar
    53    48    49  ar
    54    49    50  ar
    55    50    51  ar
    56     1    52   1
    57     2    53   1
    58     3    54   1
    59     4    55   1
    60     5    56   1
    61     7    57   1
    62     7    58   1
    63    11    59   1
    64    12    60   1
    65    13    61   1
    66    13    62   1
    67    15    63   1
    68    16    64   1
    69    17    65   1
    70    18    66   1
    71    19    67   1
    72    23    68   1
    73    24    69   1
    74    28    70   1
    75    28    71   1
    76    30    72   1
    77    31    73   1
    78    33    74   1
    79    34    75   1
    80    35    76   1
    81    36    77   1
    82    36    78   1
    83    37    79   1
    84    40    80   1
    85    40    81   1
    86    42    82   1
    87    47    83   1
    88    48    84   1
    89    49    85   1
    90    50    86   1
    91    51    87   1
@<TRIPOS>SUBSTRUCTURE
     1  MOL      1

