@<TRIPOS>MOLECULE
2xy9_ligand_056
    87    91
SMALL
GAST_HUCK
****
This file was generated by PARSER (from files_GN.cpp)

@<TRIPOS>ATOM
      1 CAQ        15.4437   -8.4430  -29.8258 C.ar        1 MOL      -0.0578
      2 CAK        16.4816   -8.2627  -30.7588 C.ar        1 MOL      -0.0685
      3 CAH        16.9787   -9.3639  -31.4797 C.ar        1 MOL      -0.0687
      4 CAL        16.4474  -10.6464  -31.2545 C.ar        1 MOL      -0.0685
      5 CAR        15.4158  -10.8302  -30.3143 C.ar        1 MOL      -0.0578
      6 CBP        14.8918   -9.7281  -29.6001 C.ar        1 MOL      -0.0130
      7 CBB        13.7992   -9.9042  -28.6102 C.3         1 MOL       0.1113
      8 OBJ        14.1190   -9.2089  -27.4012 O.3         1 MOL      -0.2506
      9 CBM        15.2014   -9.3900  -26.6008 C.2         1 MOL       0.3232
     10 OAB        16.0927  -10.3784  -26.8472 O.2         1 MOL      -0.3774
     11 NBI        15.3849   -8.4790  -25.6267 N.am        1 MOL      -0.2418
     12 CBX        16.5202   -8.3721  -24.7661 C.3         1 MOL       0.1176
     13 CBE        17.2545   -7.0178  -25.0207 C.3         1 MOL       0.0205
     14 CBQ        17.9583   -6.7799  -26.3180 C.ar        1 MOL      -0.0393
     15 CAS        18.6654   -5.5622  -26.4829 C.ar        1 MOL      -0.0602
     16 CAM        19.3697   -5.2714  -27.6665 C.ar        1 MOL      -0.0686
     17 CAI        19.3685   -6.1974  -28.7225 C.ar        1 MOL      -0.0687
     18 CAN        18.6776   -7.4130  -28.5841 C.ar        1 MOL      -0.0686
     19 CAT        17.9902   -7.7071  -27.3908 C.ar        1 MOL      -0.0602
     20 PBY        15.9874   -8.5835  -23.1904 P.3         1 MOL       0.0154
     21 OAG        17.1051   -8.5232  -22.2832 O.co2       1 MOL      -0.6174
     22 OAD        15.5772   -9.9638  -23.0824 O.co2       1 MOL      -0.6174
     23 N          13.3702   -5.3764  -24.0592 N.am        1 MOL      -0.2694
     24 CA         12.7476   -4.7274  -25.1851 C.3         1 MOL       0.1024
     25 C          12.4166   -5.7674  -26.1747 C.2         1 MOL       0.0619
     26 OXT        13.3682   -6.6320  -26.5925 O.co2       1 MOL      -0.5665
     27 O          11.1500   -5.9635  -26.6039 O.co2       1 MOL      -0.5665
     28 CB         13.3716   -3.4370  -25.8188 C.3         1 MOL       0.0108
     29 CG         14.4546   -3.5211  -26.8485 C.ar        1 MOL      -0.0499
     30 CD1        15.7769   -3.1069  -26.5508 C.ar        1 MOL      -0.0686
     31 CE1        16.7900   -3.1390  -27.5288 C.ar        1 MOL      -0.0398
     32 CZ         16.4925   -3.5566  -28.8417 C.ar        1 MOL       0.0805
     33 OH         17.4599   -3.6180  -29.7931 O.3         1 MOL      -0.3376
     34 CE2        15.1684   -3.9020  -29.1747 C.ar        1 MOL      -0.0398
     35 CD2        14.1599   -3.8742  -28.1894 C.ar        1 MOL      -0.0686
     36 CBF        14.7271   -7.6630  -22.5802 C.3         1 MOL       0.0375
     37 CBV        14.9602   -6.1134  -22.3927 C.3         1 MOL       0.0788
     38 CBN        14.6106   -5.3291  -23.5827 C.2         1 MOL       0.1848
     39 OAC        15.4694   -4.6052  -24.0701 O.2         1 MOL      -0.3964
     40 CBC        14.2199   -5.5212  -21.1389 C.3         1 MOL       0.0422
     41 CBS        14.8061   -4.2765  -20.6047 C.2         1 MOL       0.1411
     42 CBA        14.6560   -3.7772  -19.3206 C.2         1 MOL      -0.0269
     43 OBK        15.6678   -3.4576  -21.2490 O.3         1 MOL      -0.1670
     44 NBG        16.0476   -2.5107  -20.4382 N.2         1 MOL      -0.1519
     45 CBU        15.4691   -2.6526  -19.2245 C.2         1 MOL       0.0430
     46 CBT        15.7220   -1.8229  -18.0917 C.ar        1 MOL      -0.0150
     47 CAU        15.1231   -2.0596  -16.8269 C.ar        1 MOL      -0.0551
     48 CAO        15.4272   -1.2487  -15.7129 C.ar        1 MOL      -0.0621
     49 CAJ        16.3367   -0.1863  -15.8429 C.ar        1 MOL      -0.0626
     50 CAP        16.9373    0.0708  -17.0838 C.ar        1 MOL      -0.0621
     51 CAV        16.6243   -0.7336  -18.1953 C.ar        1 MOL      -0.0551
     52 H1         15.0992   -7.6310  -29.3056 H           1 MOL       0.0557
     53 H2         16.8762   -7.3323  -30.9114 H           1 MOL       0.0599
     54 H3         17.7208   -9.2311  -32.1681 H           1 MOL       0.0559
     55 H4         16.8021  -11.4447  -31.7840 H           1 MOL       0.0599
     56 H5         15.0393  -11.7709  -30.1669 H           1 MOL       0.0557
     57 H6         13.6086  -10.9570  -28.3834 H           1 MOL       0.0776
     58 H7         12.8809   -9.4751  -29.0162 H           1 MOL       0.0776
     59 H8         14.6967   -7.7990  -25.5330 H           1 MOL       0.1888
     60 H9         17.2447   -9.1727  -24.9580 H           1 MOL       0.0787
     61 H10        18.0045   -6.8717  -24.2372 H           1 MOL       0.0465
     62 H11        16.5078   -6.2200  -24.9147 H           1 MOL       0.0465
     63 H12        18.6534   -4.8655  -25.7381 H           1 MOL       0.0557
     64 H13        19.8685   -4.3848  -27.7624 H           1 MOL       0.0599
     65 H14        19.8686   -5.9926  -29.5911 H           1 MOL       0.0559
     66 H15        18.6936   -8.0944  -29.3487 H           1 MOL       0.0599
     67 H16        17.5272   -8.6149  -27.3152 H           1 MOL       0.0557
     68 H17        12.7766   -5.9659  -23.5612 H           1 MOL       0.1876
     69 H18        11.7951   -4.3849  -24.7710 H           1 MOL       0.0747
     70 H19        13.7149   -2.8334  -24.9782 H           1 MOL       0.0446
     71 H20        12.5625   -2.8627  -26.2824 H           1 MOL       0.0446
     72 H21        16.0178   -2.7660  -25.6187 H           1 MOL       0.0530
     73 H22        17.7398   -2.8520  -27.2829 H           1 MOL       0.0525
     74 H23        18.0795   -2.8801  -29.6086 H           1 MOL       0.2458
     75 H24        14.9313   -4.1579  -30.1355 H           1 MOL       0.0525
     76 H25        13.2018   -4.0910  -28.4677 H           1 MOL       0.0530
     77 H26        14.5113   -8.1110  -21.6080 H           1 MOL       0.0495
     78 H27        13.8483   -7.8575  -23.1982 H           1 MOL       0.0495
     79 H28        16.0310   -5.9841  -22.1849 H           1 MOL       0.0581
     80 H29        14.2684   -6.2485  -20.3286 H           1 MOL       0.0513
     81 H30        13.1623   -5.3388  -21.3457 H           1 MOL       0.0513
     82 H31        14.0910   -4.2020  -18.5822 H           1 MOL       0.0289
     83 H32        14.4624   -2.8243  -16.6930 H           1 MOL       0.0616
     84 H33        14.9885   -1.4355  -14.8082 H           1 MOL       0.0615
     85 H34        16.5617    0.4006  -15.0330 H           1 MOL       0.0610
     86 H35        17.6026    0.8434  -17.1826 H           1 MOL       0.0615
     87 H36        17.0679   -0.5110  -19.0841 H           1 MOL       0.0616
@<TRIPOS>BOND
     1     1     2  ar
     2     6     1  ar
     3     2     3  ar
     4     4     3  ar
     5     5     4  ar
     6     6     5  ar
     7     7     6   1
     8     8     7   1
     9     9     8   1
    10     9    10   2
    11    11     9  am
    12    12    11   1
    13    12    13   1
    14    20    12   1
    15    13    14   1
    16    14    15  ar
    17    14    19  ar
    18    15    16  ar
    19    16    17  ar
    20    18    17  ar
    21    19    18  ar
    22    20    21  ar
    23    20    22  ar
    24    36    20   1
    25    23    24   1
    26    38    23  am
    27    24    25   1
    28    24    28   1
    29    25    26  ar
    30    25    27  ar
    31    28    29   1
    32    29    30  ar
    33    29    35  ar
    34    30    31  ar
    35    31    32  ar
    36    32    33   1
    37    34    32  ar
    38    35    34  ar
    39    37    36   1
    40    37    38   1
    41    37    40   1
    42    38    39   2
    43    40    41   1
    44    41    42   2
    45    41    43   1
    46    42    45   1
    47    43    44   1
    48    44    45   2
    49    45    46   1
    50    46    47  ar
    51    46    51  ar
    52    47    48  ar
    53    48    49  ar
    54    49    50  ar
    55    50    51  ar
    56     1    52   1
    57     2    53   1
    58     3    54   1
    59     4    55   1
    60     5    56   1
    61     7    57   1
    62     7    58   1
    63    11    59   1
    64    12    60   1
    65    13    61   1
    66    13    62   1
    67    15    63   1
    68    16    64   1
    69    17    65   1
    70    18    66   1
    71    19    67   1
    72    23    68   1
    73    24    69   1
    74    28    70   1
    75    28    71   1
    76    30    72   1
    77    31    73   1
    78    33    74   1
    79    34    75   1
    80    35    76   1
    81    36    77   1
    82    36    78   1
    83    37    79   1
    84    40    80   1
    85    40    81   1
    86    42    82   1
    87    47    83   1
    88    48    84   1
    89    49    85   1
    90    50    86   1
    91    51    87   1
@<TRIPOS>SUBSTRUCTURE
     1  MOL      1

