@<TRIPOS>MOLECULE
2xy9_ligand_061
    87    91
SMALL
GAST_HUCK
****
This file was generated by PARSER (from files_GN.cpp)

@<TRIPOS>ATOM
      1 CAQ         8.0554    0.7681  -16.4191 C.ar        1 MOL      -0.0578
      2 CAK         7.6733    2.0791  -16.7775 C.ar        1 MOL      -0.0685
      3 CAH         8.6580    3.0816  -16.9149 C.ar        1 MOL      -0.0687
      4 CAL        10.0015    2.7882  -16.6381 C.ar        1 MOL      -0.0685
      5 CAR        10.3743    1.4836  -16.2657 C.ar        1 MOL      -0.0578
      6 CBP         9.4080    0.4540  -16.1622 C.ar        1 MOL      -0.0130
      7 CBB         9.8421   -0.9302  -15.8669 C.3         1 MOL       0.1113
      8 OBJ        10.5454   -1.4053  -17.0282 O.3         1 MOL      -0.2506
      9 CBM        11.8160   -1.8618  -17.1310 C.2         1 MOL       0.3232
     10 OAB        12.6023   -2.0007  -16.0266 O.2         1 MOL      -0.3774
     11 NBI        12.2815   -2.0322  -18.3862 N.am        1 MOL      -0.2418
     12 CBX        13.6276   -2.2796  -18.8461 C.3         1 MOL       0.1176
     13 CBE        14.8062   -1.6399  -18.0250 C.3         1 MOL       0.0205
     14 CBQ        14.7152   -0.1681  -17.7980 C.ar        1 MOL      -0.0393
     15 CAS        14.4589    0.7256  -18.8688 C.ar        1 MOL      -0.0602
     16 CAM        14.3868    2.1105  -18.6554 C.ar        1 MOL      -0.0686
     17 CAI        14.6089    2.6383  -17.3720 C.ar        1 MOL      -0.0687
     18 CAN        14.9091    1.7765  -16.3052 C.ar        1 MOL      -0.0686
     19 CAT        14.9721    0.3842  -16.5192 C.ar        1 MOL      -0.0602
     20 PBY        13.8168   -3.9069  -19.2478 P.3         1 MOL       0.0154
     21 OAG        13.1887   -4.7550  -18.2596 O.co2       1 MOL      -0.6174
     22 OAD        15.2164   -4.2450  -19.1321 O.co2       1 MOL      -0.6174
     23 N          12.9251   -4.4083  -23.8370 N.am        1 MOL      -0.2694
     24 CA         12.4614   -4.5372  -25.1992 C.3         1 MOL       0.1024
     25 C          11.7558   -5.8070  -25.5036 C.2         1 MOL       0.0619
     26 OXT        11.7825   -6.8842  -24.6789 O.co2       1 MOL      -0.5665
     27 O          10.8493   -5.7876  -26.5056 O.co2       1 MOL      -0.5665
     28 CB         13.5429   -4.1114  -26.2675 C.3         1 MOL       0.0108
     29 CG         13.9040   -5.0781  -27.3597 C.ar        1 MOL      -0.0499
     30 CD1        14.3660   -6.3803  -27.0450 C.ar        1 MOL      -0.0686
     31 CE1        14.7359   -7.2873  -28.0599 C.ar        1 MOL      -0.0398
     32 CZ         14.6654   -6.9101  -29.4132 C.ar        1 MOL       0.0805
     33 OH         14.9889   -7.7792  -30.4074 O.3         1 MOL      -0.3376
     34 CE2        14.2495   -5.6049  -29.7425 C.ar        1 MOL      -0.0398
     35 CD2        13.8769   -4.6992  -28.7261 C.ar        1 MOL      -0.0686
     36 CBF        13.2354   -4.3086  -20.7848 C.3         1 MOL       0.0375
     37 CBV        14.2548   -4.8981  -21.8329 C.3         1 MOL       0.0788
     38 CBN        13.6247   -5.2722  -23.1115 C.2         1 MOL       0.1848
     39 OAC        13.8905   -6.3758  -23.5674 O.2         1 MOL      -0.3964
     40 CBC        15.5327   -3.9872  -22.0311 C.3         1 MOL       0.0422
     41 CBS        16.0950   -3.8499  -23.3936 C.2         1 MOL       0.1411
     42 CBA        16.9689   -4.6861  -24.0822 C.2         1 MOL      -0.0269
     43 OBK        15.7602   -2.8393  -24.2270 O.3         1 MOL      -0.1670
     44 NBG        16.3488   -3.0255  -25.3733 N.2         1 MOL      -0.1519
     45 CBU        17.1238   -4.1265  -25.3512 C.2         1 MOL       0.0430
     46 CBT        17.8986   -4.5811  -26.4570 C.ar        1 MOL      -0.0150
     47 CAU        18.8976   -5.5792  -26.3228 C.ar        1 MOL      -0.0551
     48 CAO        19.6746   -5.9742  -27.4265 C.ar        1 MOL      -0.0621
     49 CAJ        19.4537   -5.4004  -28.6914 C.ar        1 MOL      -0.0626
     50 CAP        18.4638   -4.4152  -28.8463 C.ar        1 MOL      -0.0621
     51 CAV        17.6892   -4.0170  -27.7443 C.ar        1 MOL      -0.0551
     52 H1          7.3317    0.0422  -16.3671 H           1 MOL       0.0557
     53 H2          6.6931    2.2936  -16.9724 H           1 MOL       0.0599
     54 H3          8.3857    4.0225  -17.2172 H           1 MOL       0.0559
     55 H4         10.7106    3.5169  -16.7403 H           1 MOL       0.0599
     56 H5         11.3628    1.2883  -16.0834 H           1 MOL       0.0557
     57 H6          8.9951   -1.5973  -15.6889 H           1 MOL       0.0776
     58 H7         10.4655   -0.9306  -14.9676 H           1 MOL       0.0776
     59 H8         11.6155   -1.9240  -19.0935 H           1 MOL       0.1888
     60 H9         13.6576   -1.7512  -19.8018 H           1 MOL       0.0787
     61 H10        15.7346   -1.8099  -18.5770 H           1 MOL       0.0465
     62 H11        14.8997   -2.1746  -17.0762 H           1 MOL       0.0465
     63 H12        14.3244    0.3724  -19.8178 H           1 MOL       0.0557
     64 H13        14.1792    2.7416  -19.4373 H           1 MOL       0.0599
     65 H14        14.5660    3.6526  -17.2167 H           1 MOL       0.0559
     66 H15        15.0918    2.1589  -15.3706 H           1 MOL       0.0599
     67 H16        15.1984   -0.2203  -15.7248 H           1 MOL       0.0557
     68 H17        12.7237   -3.5641  -23.4072 H           1 MOL       0.1876
     69 H18        11.6619   -3.7890  -25.2399 H           1 MOL       0.0747
     70 H19        14.4739   -3.8457  -25.7438 H           1 MOL       0.0446
     71 H20        13.1968   -3.1758  -26.7272 H           1 MOL       0.0446
     72 H21        14.4418   -6.6781  -26.0732 H           1 MOL       0.0530
     73 H22        15.0529   -8.2276  -27.8076 H           1 MOL       0.0525
     74 H23        15.9672   -7.7968  -30.4578 H           1 MOL       0.2458
     75 H24        14.2078   -5.3064  -30.7212 H           1 MOL       0.0525
     76 H25        13.5739   -3.7581  -28.9934 H           1 MOL       0.0530
     77 H26        12.7995   -3.4098  -21.2205 H           1 MOL       0.0495
     78 H27        12.4061   -5.0127  -20.6569 H           1 MOL       0.0495
     79 H28        14.6072   -5.8376  -21.3817 H           1 MOL       0.0581
     80 H29        16.3333   -4.3462  -21.3795 H           1 MOL       0.0513
     81 H30        15.3108   -2.9687  -21.7069 H           1 MOL       0.0513
     82 H31        17.3870   -5.5460  -23.7214 H           1 MOL       0.0289
     83 H32        19.0935   -6.0037  -25.4139 H           1 MOL       0.0616
     84 H33        20.4055   -6.6794  -27.3147 H           1 MOL       0.0615
     85 H34        20.0101   -5.6930  -29.4945 H           1 MOL       0.0610
     86 H35        18.3076   -3.9912  -29.7625 H           1 MOL       0.0615
     87 H36        16.9784   -3.2987  -27.8912 H           1 MOL       0.0616
@<TRIPOS>BOND
     1     1     2  ar
     2     6     1  ar
     3     2     3  ar
     4     4     3  ar
     5     5     4  ar
     6     6     5  ar
     7     7     6   1
     8     8     7   1
     9     9     8   1
    10     9    10   2
    11    11     9  am
    12    12    11   1
    13    12    13   1
    14    20    12   1
    15    13    14   1
    16    14    15  ar
    17    14    19  ar
    18    15    16  ar
    19    16    17  ar
    20    18    17  ar
    21    19    18  ar
    22    20    21  ar
    23    20    22  ar
    24    36    20   1
    25    23    24   1
    26    38    23  am
    27    24    25   1
    28    24    28   1
    29    25    26  ar
    30    25    27  ar
    31    28    29   1
    32    29    30  ar
    33    29    35  ar
    34    30    31  ar
    35    31    32  ar
    36    32    33   1
    37    34    32  ar
    38    35    34  ar
    39    37    36   1
    40    37    38   1
    41    37    40   1
    42    38    39   2
    43    40    41   1
    44    41    42   2
    45    41    43   1
    46    42    45   1
    47    43    44   1
    48    44    45   2
    49    45    46   1
    50    46    47  ar
    51    46    51  ar
    52    47    48  ar
    53    48    49  ar
    54    49    50  ar
    55    50    51  ar
    56     1    52   1
    57     2    53   1
    58     3    54   1
    59     4    55   1
    60     5    56   1
    61     7    57   1
    62     7    58   1
    63    11    59   1
    64    12    60   1
    65    13    61   1
    66    13    62   1
    67    15    63   1
    68    16    64   1
    69    17    65   1
    70    18    66   1
    71    19    67   1
    72    23    68   1
    73    24    69   1
    74    28    70   1
    75    28    71   1
    76    30    72   1
    77    31    73   1
    78    33    74   1
    79    34    75   1
    80    35    76   1
    81    36    77   1
    82    36    78   1
    83    37    79   1
    84    40    80   1
    85    40    81   1
    86    42    82   1
    87    47    83   1
    88    48    84   1
    89    49    85   1
    90    50    86   1
    91    51    87   1
@<TRIPOS>SUBSTRUCTURE
     1  MOL      1

