@<TRIPOS>MOLECULE
2xy9_ligand_006
    87    91
SMALL
GAST_HUCK
****
This file was generated by PARSER (from files_GN.cpp)

@<TRIPOS>ATOM
      1 CAQ        10.3985   -5.3996  -14.7253 C.ar        1 MOL      -0.0578
      2 CAK        10.7039   -5.8488  -13.4242 C.ar        1 MOL      -0.0685
      3 CAH        11.8639   -5.3906  -12.7747 C.ar        1 MOL      -0.0687
      4 CAL        12.7187   -4.4819  -13.4263 C.ar        1 MOL      -0.0685
      5 CAR        12.4097   -4.0317  -14.7223 C.ar        1 MOL      -0.0578
      6 CBP        11.2488   -4.4893  -15.3941 C.ar        1 MOL      -0.0130
      7 CBB        10.9407   -3.9859  -16.7551 C.3         1 MOL       0.1113
      8 OBJ        11.9894   -4.3822  -17.6489 O.3         1 MOL      -0.2506
      9 CBM        12.2368   -3.8955  -18.8969 C.2         1 MOL       0.3232
     10 OAB        11.4336   -2.9530  -19.4628 O.2         1 MOL      -0.3774
     11 NBI        13.4616   -4.1846  -19.3837 N.am        1 MOL      -0.2418
     12 CBX        14.1788   -3.4102  -20.3624 C.3         1 MOL       0.1176
     13 CBE        14.1919   -1.8666  -20.0509 C.3         1 MOL       0.0205
     14 CBQ        14.9827   -1.3533  -18.8771 C.ar        1 MOL      -0.0393
     15 CAS        14.8158   -1.8770  -17.5713 C.ar        1 MOL      -0.0602
     16 CAM        15.5372   -1.3606  -16.4768 C.ar        1 MOL      -0.0686
     17 CAI        16.4223   -0.2837  -16.6626 C.ar        1 MOL      -0.0687
     18 CAN        16.5906    0.2691  -17.9452 C.ar        1 MOL      -0.0686
     19 CAT        15.8755   -0.2613  -19.0357 C.ar        1 MOL      -0.0602
     20 PBY        15.7174   -4.0455  -20.5684 P.3         1 MOL       0.0154
     21 OAG        16.2398   -4.2883  -19.2408 O.co2       1 MOL      -0.6174
     22 OAD        16.6039   -3.0356  -21.1040 O.co2       1 MOL      -0.6174
     23 N          13.4981   -5.5231  -24.3755 N.am        1 MOL      -0.2694
     24 CA         13.2602   -5.0380  -25.7044 C.3         1 MOL       0.1024
     25 C          11.8211   -4.7341  -25.8718 C.2         1 MOL       0.0619
     26 OXT        10.9512   -5.6520  -26.3563 O.co2       1 MOL      -0.5665
     27 O          11.3160   -3.6122  -25.3150 O.co2       1 MOL      -0.5665
     28 CB         13.8698   -5.9811  -26.7886 C.3         1 MOL       0.0108
     29 CG         13.3866   -7.3773  -27.0242 C.ar        1 MOL      -0.0499
     30 CD1        13.9355   -8.0818  -28.1251 C.ar        1 MOL      -0.0686
     31 CE1        13.4655   -9.3551  -28.4844 C.ar        1 MOL      -0.0398
     32 CZ         12.4403   -9.9621  -27.7342 C.ar        1 MOL       0.0805
     33 OH         11.9550  -11.1659  -28.1233 O.3         1 MOL      -0.3376
     34 CE2        11.9162   -9.3008  -26.6088 C.ar        1 MOL      -0.0398
     35 CD2        12.4013   -8.0303  -26.2464 C.ar        1 MOL      -0.0686
     36 CBF        15.9303   -5.4519  -21.4646 C.3         1 MOL       0.0375
     37 CBV        14.7252   -5.9394  -22.3435 C.3         1 MOL       0.0788
     38 CBN        14.4973   -5.1735  -23.5747 C.2         1 MOL       0.1848
     39 OAC        15.2670   -4.2769  -23.9030 O.2         1 MOL      -0.3964
     40 CBC        14.7904   -7.4911  -22.6018 C.3         1 MOL       0.0422
     41 CBS        15.4612   -8.0189  -23.8076 C.2         1 MOL       0.1411
     42 CBA        16.4578   -7.4822  -24.6104 C.2         1 MOL      -0.0269
     43 OBK        15.0547   -9.1653  -24.3979 O.3         1 MOL      -0.1670
     44 NBG        15.7163   -9.3413  -25.5067 N.2         1 MOL      -0.1519
     45 CBU        16.5837   -8.3306  -25.7059 C.2         1 MOL       0.0430
     46 CBT        17.3987   -8.1988  -26.8649 C.ar        1 MOL      -0.0150
     47 CAU        18.4318   -7.2310  -26.9533 C.ar        1 MOL      -0.0551
     48 CAO        19.2296   -7.1249  -28.1053 C.ar        1 MOL      -0.0621
     49 CAJ        19.0008   -7.9735  -29.2057 C.ar        1 MOL      -0.0626
     50 CAP        17.9796   -8.9373  -29.1403 C.ar        1 MOL      -0.0621
     51 CAV        17.1970   -9.0539  -27.9791 C.ar        1 MOL      -0.0551
     52 H1          9.5475   -5.7423  -15.1760 H           1 MOL       0.0557
     53 H2         10.0823   -6.5106  -12.9498 H           1 MOL       0.0599
     54 H3         12.0880   -5.7171  -11.8302 H           1 MOL       0.0559
     55 H4         13.5657   -4.1526  -12.9571 H           1 MOL       0.0599
     56 H5         13.0405   -3.3661  -15.1731 H           1 MOL       0.0557
     57 H6         10.9046   -2.8937  -16.7112 H           1 MOL       0.0776
     58 H7          9.9731   -4.3397  -17.1181 H           1 MOL       0.0776
     59 H8         13.9593   -4.8895  -18.9268 H           1 MOL       0.1888
     60 H9         13.6512   -3.5268  -21.3125 H           1 MOL       0.0787
     61 H10        13.1533   -1.5347  -19.9052 H           1 MOL       0.0465
     62 H11        14.5315   -1.3595  -20.9603 H           1 MOL       0.0465
     63 H12        14.1755   -2.6491  -17.3987 H           1 MOL       0.0557
     64 H13        15.4140   -1.7627  -15.5456 H           1 MOL       0.0599
     65 H14        16.9285    0.1098  -15.8656 H           1 MOL       0.0559
     66 H15        17.2248    1.0591  -18.0787 H           1 MOL       0.0599
     67 H16        16.0087    0.1626  -19.9551 H           1 MOL       0.0557
     68 H17        12.9395   -6.2504  -24.0655 H           1 MOL       0.1876
     69 H18        13.7600   -4.0681  -25.8356 H           1 MOL       0.0747
     70 H19        14.9410   -6.0497  -26.5847 H           1 MOL       0.0446
     71 H20        13.7647   -5.4486  -27.7395 H           1 MOL       0.0446
     72 H21        14.6643   -7.6530  -28.7035 H           1 MOL       0.0530
     73 H22        13.8506   -9.8317  -29.3056 H           1 MOL       0.0525
     74 H23        12.0577  -11.7552  -27.3429 H           1 MOL       0.2458
     75 H24        11.1661   -9.7341  -26.0657 H           1 MOL       0.0525
     76 H25        11.9993   -7.5894  -25.4253 H           1 MOL       0.0530
     77 H26        16.1888   -6.2419  -20.7555 H           1 MOL       0.0495
     78 H27        16.8016   -5.3266  -22.1130 H           1 MOL       0.0495
     79 H28        13.8346   -5.7921  -21.7276 H           1 MOL       0.0581
     80 H29        13.7606   -7.8471  -22.6741 H           1 MOL       0.0513
     81 H30        15.2144   -8.0098  -21.7363 H           1 MOL       0.0513
     82 H31        16.9460   -6.6013  -24.4518 H           1 MOL       0.0289
     83 H32        18.6303   -6.6044  -26.1679 H           1 MOL       0.0616
     84 H33        19.9781   -6.4303  -28.1489 H           1 MOL       0.0615
     85 H34        19.5717   -7.8910  -30.0451 H           1 MOL       0.0610
     86 H35        17.8085   -9.5547  -29.9373 H           1 MOL       0.0615
     87 H36        16.4677   -9.7730  -27.9636 H           1 MOL       0.0616
@<TRIPOS>BOND
     1     1     2  ar
     2     6     1  ar
     3     2     3  ar
     4     4     3  ar
     5     5     4  ar
     6     6     5  ar
     7     7     6   1
     8     8     7   1
     9     9     8   1
    10     9    10   2
    11    11     9  am
    12    12    11   1
    13    12    13   1
    14    20    12   1
    15    13    14   1
    16    14    15  ar
    17    14    19  ar
    18    15    16  ar
    19    16    17  ar
    20    18    17  ar
    21    19    18  ar
    22    20    21  ar
    23    20    22  ar
    24    36    20   1
    25    23    24   1
    26    38    23  am
    27    24    25   1
    28    24    28   1
    29    25    26  ar
    30    25    27  ar
    31    28    29   1
    32    29    30  ar
    33    29    35  ar
    34    30    31  ar
    35    31    32  ar
    36    32    33   1
    37    34    32  ar
    38    35    34  ar
    39    37    36   1
    40    37    38   1
    41    37    40   1
    42    38    39   2
    43    40    41   1
    44    41    42   2
    45    41    43   1
    46    42    45   1
    47    43    44   1
    48    44    45   2
    49    45    46   1
    50    46    47  ar
    51    46    51  ar
    52    47    48  ar
    53    48    49  ar
    54    49    50  ar
    55    50    51  ar
    56     1    52   1
    57     2    53   1
    58     3    54   1
    59     4    55   1
    60     5    56   1
    61     7    57   1
    62     7    58   1
    63    11    59   1
    64    12    60   1
    65    13    61   1
    66    13    62   1
    67    15    63   1
    68    16    64   1
    69    17    65   1
    70    18    66   1
    71    19    67   1
    72    23    68   1
    73    24    69   1
    74    28    70   1
    75    28    71   1
    76    30    72   1
    77    31    73   1
    78    33    74   1
    79    34    75   1
    80    35    76   1
    81    36    77   1
    82    36    78   1
    83    37    79   1
    84    40    80   1
    85    40    81   1
    86    42    82   1
    87    47    83   1
    88    48    84   1
    89    49    85   1
    90    50    86   1
    91    51    87   1
@<TRIPOS>SUBSTRUCTURE
     1  MOL      1

