@<TRIPOS>MOLECULE
2xy9_ligand_077
    87    91
SMALL
GAST_HUCK
****
This file was generated by PARSER (from files_GN.cpp)

@<TRIPOS>ATOM
      1 CAQ        15.4239  -14.4413  -23.8575 C.ar        1 MOL      -0.0578
      2 CAK        15.2718  -15.8384  -23.8597 C.ar        1 MOL      -0.0685
      3 CAH        16.1963  -16.6444  -23.1768 C.ar        1 MOL      -0.0687
      4 CAL        17.2748  -16.0481  -22.4945 C.ar        1 MOL      -0.0685
      5 CAR        17.4277  -14.6497  -22.4951 C.ar        1 MOL      -0.0578
      6 CBP        16.5091  -13.8233  -23.1844 C.ar        1 MOL      -0.0130
      7 CBB        16.7073  -12.3463  -23.1433 C.3         1 MOL       0.1113
      8 OBJ        15.6350  -11.5438  -23.6487 O.3         1 MOL      -0.2506
      9 CBM        15.3178  -11.2968  -24.9432 C.2         1 MOL       0.3232
     10 OAB        16.0563  -11.8023  -25.9560 O.2         1 MOL      -0.3774
     11 NBI        14.2004  -10.5765  -25.1627 N.am        1 MOL      -0.2418
     12 CBX        13.6183  -10.2311  -26.4344 C.3         1 MOL       0.1176
     13 CBE        12.1823  -10.8648  -26.5913 C.3         1 MOL       0.0205
     14 CBQ        11.5382  -11.3233  -25.3218 C.ar        1 MOL      -0.0393
     15 CAS        10.7129  -10.4663  -24.5561 C.ar        1 MOL      -0.0602
     16 CAM        10.1831  -10.8907  -23.3228 C.ar        1 MOL      -0.0686
     17 CAI        10.4783  -12.1763  -22.8329 C.ar        1 MOL      -0.0687
     18 CAN        11.2875  -13.0456  -23.5842 C.ar        1 MOL      -0.0686
     19 CAT        11.8052  -12.6228  -24.8217 C.ar        1 MOL      -0.0602
     20 PBY        13.7301   -8.5612  -26.6315 P.3         1 MOL       0.0154
     21 OAG        14.3291   -7.9136  -25.4874 O.co2       1 MOL      -0.6174
     22 OAD        12.4071   -7.9726  -26.6752 O.co2       1 MOL      -0.6174
     23 N          15.2864   -4.3870  -27.5345 N.am        1 MOL      -0.2694
     24 CA         14.8906   -3.2139  -26.8014 C.3         1 MOL       0.1024
     25 C          14.7582   -2.1024  -27.7631 C.2         1 MOL       0.0619
     26 OXT        13.6072   -1.9331  -28.4531 O.co2       1 MOL      -0.5665
     27 O          15.8159   -1.3196  -28.0780 O.co2       1 MOL      -0.5665
     28 CB         15.9387   -2.9114  -25.6890 C.3         1 MOL       0.0108
     29 CG         16.0274   -3.9991  -24.6701 C.ar        1 MOL      -0.0499
     30 CD1        17.1437   -4.8653  -24.6354 C.ar        1 MOL      -0.0686
     31 CE1        17.1875   -5.9475  -23.7389 C.ar        1 MOL      -0.0398
     32 CZ         16.1145   -6.1802  -22.8576 C.ar        1 MOL       0.0805
     33 OH         16.1410   -7.2411  -22.0176 O.3         1 MOL      -0.3376
     34 CE2        15.0103   -5.3123  -22.8555 C.ar        1 MOL      -0.0398
     35 CD2        14.9659   -4.2313  -23.7574 C.ar        1 MOL      -0.0686
     36 CBF        14.5002   -8.0955  -28.0516 C.3         1 MOL       0.0375
     37 CBV        15.3627   -6.7748  -28.0772 C.3         1 MOL       0.0788
     38 CBN        14.6995   -5.5825  -27.4971 C.2         1 MOL       0.1848
     39 OAC        13.5594   -5.6711  -27.0414 O.2         1 MOL      -0.3964
     40 CBC        16.8137   -7.0044  -27.5062 C.3         1 MOL       0.0422
     41 CBS        17.7767   -7.8090  -28.2983 C.2         1 MOL       0.1411
     42 CBA        17.6280   -8.6618  -29.3892 C.2         1 MOL      -0.0269
     43 OBK        19.1044   -7.7389  -28.0445 O.3         1 MOL      -0.1670
     44 NBG        19.7626   -8.4908  -28.8809 N.2         1 MOL      -0.1519
     45 CBU        18.9059   -9.1112  -29.7161 C.2         1 MOL       0.0430
     46 CBT        19.2803  -10.0500  -30.7145 C.ar        1 MOL      -0.0150
     47 CAU        18.3409  -10.9199  -31.3235 C.ar        1 MOL      -0.0551
     48 CAO        18.7511  -11.8806  -32.2713 C.ar        1 MOL      -0.0621
     49 CAJ        20.1057  -11.9820  -32.6366 C.ar        1 MOL      -0.0626
     50 CAP        21.0511  -11.1263  -32.0475 C.ar        1 MOL      -0.0621
     51 CAV        20.6393  -10.1738  -31.0954 C.ar        1 MOL      -0.0551
     52 H1         14.7248  -13.8826  -24.3514 H           1 MOL       0.0557
     53 H2         14.4916  -16.2673  -24.3530 H           1 MOL       0.0599
     54 H3         16.0878  -17.6634  -23.1691 H           1 MOL       0.0559
     55 H4         17.9469  -16.6336  -21.9866 H           1 MOL       0.0599
     56 H5         18.2090  -14.2394  -21.9836 H           1 MOL       0.0557
     57 H6         17.6320  -12.0901  -23.6691 H           1 MOL       0.0776
     58 H7         16.8297  -12.0518  -22.0983 H           1 MOL       0.0776
     59 H8         13.7202  -10.2616  -24.3730 H           1 MOL       0.1888
     60 H9         14.2218  -10.6804  -27.2273 H           1 MOL       0.0787
     61 H10        12.2670  -11.7342  -27.2551 H           1 MOL       0.0465
     62 H11        11.4996  -10.1897  -27.1173 H           1 MOL       0.0465
     63 H12        10.4967   -9.5252  -24.8845 H           1 MOL       0.0557
     64 H13         9.5897  -10.2630  -22.7750 H           1 MOL       0.0599
     65 H14        10.1067  -12.4822  -21.9314 H           1 MOL       0.0559
     66 H15        11.5051  -13.9796  -23.2297 H           1 MOL       0.0599
     67 H16        12.4042  -13.2652  -25.3458 H           1 MOL       0.0557
     68 H17        16.1201   -4.3164  -28.0264 H           1 MOL       0.1876
     69 H18        13.9171   -3.3452  -26.3093 H           1 MOL       0.0747
     70 H19        15.6813   -1.9754  -25.1830 H           1 MOL       0.0446
     71 H20        16.9102   -2.7607  -26.1661 H           1 MOL       0.0446
     72 H21        17.9253   -4.7267  -25.2759 H           1 MOL       0.0530
     73 H22        17.9947   -6.5795  -23.7445 H           1 MOL       0.0525
     74 H23        16.1493   -8.0293  -22.6133 H           1 MOL       0.2458
     75 H24        14.2313   -5.4743  -22.2193 H           1 MOL       0.0525
     76 H25        14.1473   -3.6099  -23.7470 H           1 MOL       0.0530
     77 H26        13.7359   -8.0128  -28.8274 H           1 MOL       0.0495
     78 H27        15.1453   -8.9154  -28.3645 H           1 MOL       0.0495
     79 H28        15.5065   -6.5227  -29.1396 H           1 MOL       0.0581
     80 H29        16.7619   -7.4505  -26.5125 H           1 MOL       0.0513
     81 H30        17.3122   -6.0434  -27.3837 H           1 MOL       0.0513
     82 H31        16.7368   -8.9022  -29.8452 H           1 MOL       0.0289
     83 H32        17.3487  -10.8899  -31.0736 H           1 MOL       0.0616
     84 H33        18.0613  -12.5152  -32.6953 H           1 MOL       0.0615
     85 H34        20.4037  -12.6793  -33.3178 H           1 MOL       0.0610
     86 H35        22.0365  -11.1903  -32.3084 H           1 MOL       0.0615
     87 H36        21.3515   -9.5602  -30.6850 H           1 MOL       0.0616
@<TRIPOS>BOND
     1     1     2  ar
     2     6     1  ar
     3     2     3  ar
     4     4     3  ar
     5     5     4  ar
     6     6     5  ar
     7     7     6   1
     8     8     7   1
     9     9     8   1
    10     9    10   2
    11    11     9  am
    12    12    11   1
    13    12    13   1
    14    20    12   1
    15    13    14   1
    16    14    15  ar
    17    14    19  ar
    18    15    16  ar
    19    16    17  ar
    20    18    17  ar
    21    19    18  ar
    22    20    21  ar
    23    20    22  ar
    24    36    20   1
    25    23    24   1
    26    38    23  am
    27    24    25   1
    28    24    28   1
    29    25    26  ar
    30    25    27  ar
    31    28    29   1
    32    29    30  ar
    33    29    35  ar
    34    30    31  ar
    35    31    32  ar
    36    32    33   1
    37    34    32  ar
    38    35    34  ar
    39    37    36   1
    40    37    38   1
    41    37    40   1
    42    38    39   2
    43    40    41   1
    44    41    42   2
    45    41    43   1
    46    42    45   1
    47    43    44   1
    48    44    45   2
    49    45    46   1
    50    46    47  ar
    51    46    51  ar
    52    47    48  ar
    53    48    49  ar
    54    49    50  ar
    55    50    51  ar
    56     1    52   1
    57     2    53   1
    58     3    54   1
    59     4    55   1
    60     5    56   1
    61     7    57   1
    62     7    58   1
    63    11    59   1
    64    12    60   1
    65    13    61   1
    66    13    62   1
    67    15    63   1
    68    16    64   1
    69    17    65   1
    70    18    66   1
    71    19    67   1
    72    23    68   1
    73    24    69   1
    74    28    70   1
    75    28    71   1
    76    30    72   1
    77    31    73   1
    78    33    74   1
    79    34    75   1
    80    35    76   1
    81    36    77   1
    82    36    78   1
    83    37    79   1
    84    40    80   1
    85    40    81   1
    86    42    82   1
    87    47    83   1
    88    48    84   1
    89    49    85   1
    90    50    86   1
    91    51    87   1
@<TRIPOS>SUBSTRUCTURE
     1  MOL      1

