@<TRIPOS>MOLECULE
2xy9_ligand_030
    87    91
SMALL
GAST_HUCK
****
This file was generated by PARSER (from files_GN.cpp)

@<TRIPOS>ATOM
      1 CAQ        13.6052   -3.3233  -13.2900 C.ar        1 MOL      -0.0578
      2 CAK        12.2944   -3.5964  -12.8547 C.ar        1 MOL      -0.0685
      3 CAH        11.2921   -2.6207  -12.9952 C.ar        1 MOL      -0.0687
      4 CAL        11.5973   -1.3797  -13.5861 C.ar        1 MOL      -0.0685
      5 CAR        12.9069   -1.1087  -14.0228 C.ar        1 MOL      -0.0578
      6 CBP        13.9261   -2.0818  -13.8886 C.ar        1 MOL      -0.0130
      7 CBB        15.3141   -1.7794  -14.3314 C.3         1 MOL       0.1113
      8 OBJ        15.4519   -1.7543  -15.7585 O.3         1 MOL      -0.2506
      9 CBM        14.7976   -2.5325  -16.6600 C.2         1 MOL       0.3232
     10 OAB        13.8133   -3.3845  -16.2684 O.2         1 MOL      -0.3774
     11 NBI        15.1191   -2.3793  -17.9646 N.am        1 MOL      -0.2418
     12 CBX        14.4739   -3.0192  -19.0814 C.3         1 MOL       0.1176
     13 CBE        13.4218   -2.0355  -19.6894 C.3         1 MOL       0.0205
     14 CBQ        12.4607   -1.5162  -18.6705 C.ar        1 MOL      -0.0393
     15 CAS        11.6134   -2.4065  -17.9671 C.ar        1 MOL      -0.0602
     16 CAM        10.7826   -1.9438  -16.9278 C.ar        1 MOL      -0.0686
     17 CAI        10.7719   -0.5802  -16.5872 C.ar        1 MOL      -0.0687
     18 CAN        11.5990    0.3183  -17.2802 C.ar        1 MOL      -0.0686
     19 CAT        12.4411   -0.1465  -18.3120 C.ar        1 MOL      -0.0602
     20 PBY        15.6679   -3.5519  -20.1278 P.3         1 MOL       0.0154
     21 OAG        16.2675   -4.7339  -19.5595 O.co2       1 MOL      -0.6174
     22 OAD        16.7446   -2.5919  -20.1466 O.co2       1 MOL      -0.6174
     23 N          12.9769   -4.4998  -24.0138 N.am        1 MOL      -0.2694
     24 CA         12.4929   -4.4043  -25.3599 C.3         1 MOL       0.1024
     25 C          12.2698   -5.7598  -25.9199 C.2         1 MOL       0.0619
     26 OXT        11.0934   -6.0529  -26.5201 O.co2       1 MOL      -0.5665
     27 O          13.2446   -6.6974  -25.9432 O.co2       1 MOL      -0.5665
     28 CB         13.2657   -3.4044  -26.2938 C.3         1 MOL       0.0108
     29 CG         13.8851   -3.9408  -27.5376 C.ar        1 MOL      -0.0499
     30 CD1        13.0979   -4.6507  -28.4764 C.ar        1 MOL      -0.0686
     31 CE1        13.6615   -5.1078  -29.6888 C.ar        1 MOL      -0.0398
     32 CZ         15.0217   -4.8636  -29.9773 C.ar        1 MOL       0.0805
     33 OH         15.5678   -5.2820  -31.1484 O.3         1 MOL      -0.3376
     34 CE2        15.8167   -4.1723  -29.0416 C.ar        1 MOL      -0.0398
     35 CD2        15.2564   -3.7231  -27.8291 C.ar        1 MOL      -0.0686
     36 CBF        15.3002   -3.7967  -21.7428 C.3         1 MOL       0.0375
     37 CBV        14.4545   -5.0496  -22.1607 C.3         1 MOL       0.0788
     38 CBN        14.1622   -4.9417  -23.5978 C.2         1 MOL       0.1848
     39 OAC        15.0516   -5.2035  -24.3991 O.2         1 MOL      -0.3964
     40 CBC        15.1300   -6.4146  -21.7422 C.3         1 MOL       0.0422
     41 CBS        15.1465   -7.5386  -22.7096 C.2         1 MOL       0.1411
     42 CBA        14.4945   -8.7619  -22.6272 C.2         1 MOL      -0.0269
     43 OBK        15.9219   -7.5788  -23.8150 O.3         1 MOL      -0.1670
     44 NBG        15.7677   -8.7274  -24.4135 N.2         1 MOL      -0.1519
     45 CBU        14.8948   -9.5054  -23.7376 C.2         1 MOL       0.0430
     46 CBT        14.5270  -10.8278  -24.1301 C.ar        1 MOL      -0.0150
     47 CAU        13.6121  -11.6098  -23.3767 C.ar        1 MOL      -0.0551
     48 CAO        13.2592  -12.9096  -23.7872 C.ar        1 MOL      -0.0621
     49 CAJ        13.8204  -13.4564  -24.9539 C.ar        1 MOL      -0.0626
     50 CAP        14.7282  -12.7014  -25.7162 C.ar        1 MOL      -0.0621
     51 CAV        15.0779  -11.4021  -25.3049 C.ar        1 MOL      -0.0551
     52 H1         14.3216   -4.0474  -13.1882 H           1 MOL       0.0557
     53 H2         12.0745   -4.5004  -12.4328 H           1 MOL       0.0599
     54 H3         10.3446   -2.8089  -12.6604 H           1 MOL       0.0559
     55 H4         10.8669   -0.6700  -13.6865 H           1 MOL       0.0599
     56 H5         13.1111   -0.2057  -14.4584 H           1 MOL       0.0557
     57 H6         16.0334   -2.5090  -13.9292 H           1 MOL       0.0776
     58 H7         15.6000   -0.7950  -13.9487 H           1 MOL       0.0776
     59 H8         15.8169   -1.7337  -18.1723 H           1 MOL       0.1888
     60 H9         13.9266   -3.9143  -18.7677 H           1 MOL       0.0787
     61 H10        12.8398   -2.5509  -20.4595 H           1 MOL       0.0465
     62 H11        13.9384   -1.2045  -20.1793 H           1 MOL       0.0465
     63 H12        11.5942   -3.4015  -18.2059 H           1 MOL       0.0557
     64 H13        10.1969   -2.6040  -16.4107 H           1 MOL       0.0599
     65 H14        10.1602   -0.2438  -15.8449 H           1 MOL       0.0559
     66 H15        11.5974    1.3091  -17.0299 H           1 MOL       0.0599
     67 H16        13.0559    0.5229  -18.7834 H           1 MOL       0.0557
     68 H17        12.3374   -4.2205  -23.3306 H           1 MOL       0.1876
     69 H18        11.4949   -3.9769  -25.2412 H           1 MOL       0.0747
     70 H19        14.0196   -2.8899  -25.6949 H           1 MOL       0.0446
     71 H20        12.5749   -2.6226  -26.6182 H           1 MOL       0.0446
     72 H21        12.0955   -4.8135  -28.2916 H           1 MOL       0.0530
     73 H22        13.0837   -5.6198  -30.3571 H           1 MOL       0.0525
     74 H23        15.0145   -4.8657  -31.8501 H           1 MOL       0.2458
     75 H24        16.8009   -3.9754  -29.2554 H           1 MOL       0.0525
     76 H25        15.8566   -3.2236  -27.1705 H           1 MOL       0.0530
     77 H26        16.2505   -3.8325  -22.2874 H           1 MOL       0.0495
     78 H27        14.7818   -2.8852  -22.0722 H           1 MOL       0.0495
     79 H28        13.5038   -4.9897  -21.6197 H           1 MOL       0.0581
     80 H29        14.6500   -6.7702  -20.8211 H           1 MOL       0.0513
     81 H30        16.1801   -6.2453  -21.4898 H           1 MOL       0.0513
     82 H31        13.8619   -9.0504  -21.8840 H           1 MOL       0.0289
     83 H32        13.1862  -11.2409  -22.5251 H           1 MOL       0.0616
     84 H33        12.5924  -13.4565  -23.2406 H           1 MOL       0.0615
     85 H34        13.5608  -14.4001  -25.2559 H           1 MOL       0.0610
     86 H35        15.1304  -13.0944  -26.5679 H           1 MOL       0.0615
     87 H36        15.7391  -10.8791  -25.8829 H           1 MOL       0.0616
@<TRIPOS>BOND
     1     1     2  ar
     2     6     1  ar
     3     2     3  ar
     4     4     3  ar
     5     5     4  ar
     6     6     5  ar
     7     7     6   1
     8     8     7   1
     9     9     8   1
    10     9    10   2
    11    11     9  am
    12    12    11   1
    13    12    13   1
    14    20    12   1
    15    13    14   1
    16    14    15  ar
    17    14    19  ar
    18    15    16  ar
    19    16    17  ar
    20    18    17  ar
    21    19    18  ar
    22    20    21  ar
    23    20    22  ar
    24    36    20   1
    25    23    24   1
    26    38    23  am
    27    24    25   1
    28    24    28   1
    29    25    26  ar
    30    25    27  ar
    31    28    29   1
    32    29    30  ar
    33    29    35  ar
    34    30    31  ar
    35    31    32  ar
    36    32    33   1
    37    34    32  ar
    38    35    34  ar
    39    37    36   1
    40    37    38   1
    41    37    40   1
    42    38    39   2
    43    40    41   1
    44    41    42   2
    45    41    43   1
    46    42    45   1
    47    43    44   1
    48    44    45   2
    49    45    46   1
    50    46    47  ar
    51    46    51  ar
    52    47    48  ar
    53    48    49  ar
    54    49    50  ar
    55    50    51  ar
    56     1    52   1
    57     2    53   1
    58     3    54   1
    59     4    55   1
    60     5    56   1
    61     7    57   1
    62     7    58   1
    63    11    59   1
    64    12    60   1
    65    13    61   1
    66    13    62   1
    67    15    63   1
    68    16    64   1
    69    17    65   1
    70    18    66   1
    71    19    67   1
    72    23    68   1
    73    24    69   1
    74    28    70   1
    75    28    71   1
    76    30    72   1
    77    31    73   1
    78    33    74   1
    79    34    75   1
    80    35    76   1
    81    36    77   1
    82    36    78   1
    83    37    79   1
    84    40    80   1
    85    40    81   1
    86    42    82   1
    87    47    83   1
    88    48    84   1
    89    49    85   1
    90    50    86   1
    91    51    87   1
@<TRIPOS>SUBSTRUCTURE
     1  MOL      1

