@<TRIPOS>MOLECULE
2xy9_ligand_071
    87    91
SMALL
GAST_HUCK
****
This file was generated by PARSER (from files_GN.cpp)

@<TRIPOS>ATOM
      1 CAQ        17.1829   -7.9126  -31.8926 C.ar        1 MOL      -0.0578
      2 CAK        17.9592   -6.9038  -32.4895 C.ar        1 MOL      -0.0685
      3 CAH        19.3637   -6.9306  -32.3729 C.ar        1 MOL      -0.0687
      4 CAL        19.9846   -7.9810  -31.6754 C.ar        1 MOL      -0.0685
      5 CAR        19.2072   -8.9969  -31.0895 C.ar        1 MOL      -0.0578
      6 CBP        17.7941   -8.9684  -31.1802 C.ar        1 MOL      -0.0130
      7 CBB        16.9525   -9.9740  -30.4865 C.3         1 MOL       0.1113
      8 OBJ        16.3825   -9.4075  -29.2892 O.3         1 MOL      -0.2506
      9 CBM        17.0917   -8.9979  -28.1985 C.2         1 MOL       0.3232
     10 OAB        18.4405   -9.1618  -28.1812 O.2         1 MOL      -0.3774
     11 NBI        16.4424   -8.3901  -27.1769 N.am        1 MOL      -0.2418
     12 CBX        17.0742   -7.8431  -26.0069 C.3         1 MOL       0.1176
     13 CBE        17.0129   -6.2877  -26.0678 C.3         1 MOL       0.0205
     14 CBQ        17.9674   -5.6637  -27.0299 C.ar        1 MOL      -0.0393
     15 CAS        17.5040   -4.8897  -28.1227 C.ar        1 MOL      -0.0602
     16 CAM        18.4082   -4.2886  -29.0180 C.ar        1 MOL      -0.0686
     17 CAI        19.7902   -4.4260  -28.8183 C.ar        1 MOL      -0.0687
     18 CAN        20.2666   -5.1530  -27.7120 C.ar        1 MOL      -0.0686
     19 CAT        19.3624   -5.7740  -26.8297 C.ar        1 MOL      -0.0602
     20 PBY        16.4201   -8.5422  -24.6291 P.3         1 MOL       0.0154
     21 OAG        17.4597   -8.7105  -23.6411 O.co2       1 MOL      -0.6174
     22 OAD        16.0527   -9.9057  -24.9360 O.co2       1 MOL      -0.6174
     23 N          13.4777   -5.5394  -24.5116 N.am        1 MOL      -0.2694
     24 CA         12.5880   -4.6321  -25.1716 C.3         1 MOL       0.1024
     25 C          11.4711   -5.4134  -25.7456 C.2         1 MOL       0.0619
     26 OXT        11.6507   -6.6009  -26.3703 O.co2       1 MOL      -0.5665
     27 O          10.2181   -4.9116  -25.7274 O.co2       1 MOL      -0.5665
     28 CB         13.1700   -3.6742  -26.2576 C.3         1 MOL       0.0108
     29 CG         13.6689   -4.1998  -27.5689 C.ar        1 MOL      -0.0499
     30 CD1        13.8974   -3.2618  -28.6057 C.ar        1 MOL      -0.0686
     31 CE1        14.2742   -3.6768  -29.8938 C.ar        1 MOL      -0.0398
     32 CZ         14.4551   -5.0416  -30.1700 C.ar        1 MOL       0.0805
     33 OH         14.7780   -5.4640  -31.4161 O.3         1 MOL      -0.3376
     34 CE2        14.2794   -5.9867  -29.1447 C.ar        1 MOL      -0.0398
     35 CD2        13.9025   -5.5684  -27.8558 C.ar        1 MOL      -0.0686
     36 CBF        15.1231   -7.8403  -23.8474 C.3         1 MOL       0.0375
     37 CBV        15.3507   -6.3870  -23.2674 C.3         1 MOL       0.0788
     38 CBN        14.7119   -5.3446  -24.0781 C.2         1 MOL       0.1848
     39 OAC        15.3057   -4.2904  -24.2638 O.2         1 MOL      -0.3964
     40 CBC        14.9253   -6.2248  -21.7689 C.3         1 MOL       0.0422
     41 CBS        15.1547   -4.8587  -21.2344 C.2         1 MOL       0.1411
     42 CBA        14.4353   -4.1894  -20.2560 C.2         1 MOL      -0.0269
     43 OBK        16.0426   -3.9758  -21.7489 O.3         1 MOL      -0.1670
     44 NBG        15.9240   -2.8332  -21.1324 N.2         1 MOL      -0.1519
     45 CBU        14.9476   -2.8914  -20.2000 C.2         1 MOL       0.0430
     46 CBT        14.5186   -1.7874  -19.4054 C.ar        1 MOL      -0.0150
     47 CAU        13.4860   -1.9127  -18.4377 C.ar        1 MOL      -0.0551
     48 CAO        13.0291   -0.7954  -17.7137 C.ar        1 MOL      -0.0621
     49 CAJ        13.5974    0.4701  -17.9328 C.ar        1 MOL      -0.0626
     50 CAP        14.6384    0.6135  -18.8652 C.ar        1 MOL      -0.0621
     51 CAV        15.0958   -0.5030  -19.5894 C.ar        1 MOL      -0.0551
     52 H1         16.1658   -7.8767  -31.9811 H           1 MOL       0.0557
     53 H2         17.5046   -6.1422  -33.0015 H           1 MOL       0.0599
     54 H3         19.9235   -6.1922  -32.7960 H           1 MOL       0.0559
     55 H4         21.0009   -8.0017  -31.5882 H           1 MOL       0.0599
     56 H5         19.6781   -9.7454  -30.5710 H           1 MOL       0.0557
     57 H6         17.5189  -10.8697  -30.2210 H           1 MOL       0.0776
     58 H7         16.1427  -10.2893  -31.1418 H           1 MOL       0.0776
     59 H8         15.4884   -8.2767  -27.2676 H           1 MOL       0.1888
     60 H9         18.1304   -8.1074  -25.9794 H           1 MOL       0.0787
     61 H10        17.2430   -5.8609  -25.0899 H           1 MOL       0.0465
     62 H11        15.9894   -6.0053  -26.3258 H           1 MOL       0.0465
     63 H12        16.5058   -4.7612  -28.2720 H           1 MOL       0.0557
     64 H13        18.0586   -3.7389  -29.8044 H           1 MOL       0.0599
     65 H14        20.4496   -3.9683  -29.4545 H           1 MOL       0.0559
     66 H15        21.2737   -5.2214  -27.5429 H           1 MOL       0.0599
     67 H16        19.7376   -6.3018  -26.0353 H           1 MOL       0.0557
     68 H17        13.0990   -6.4060  -24.3025 H           1 MOL       0.1876
     69 H18        12.1688   -4.0048  -24.3781 H           1 MOL       0.0747
     70 H19        13.9773   -3.0930  -25.8144 H           1 MOL       0.0446
     71 H20        12.3801   -2.9468  -26.4849 H           1 MOL       0.0446
     72 H21        13.7556   -2.2612  -28.4341 H           1 MOL       0.0530
     73 H22        14.3879   -2.9846  -30.6339 H           1 MOL       0.0525
     74 H23        15.3034   -4.7391  -31.8241 H           1 MOL       0.2458
     75 H24        14.4161   -6.9828  -29.3391 H           1 MOL       0.0525
     76 H25        13.7996   -6.2838  -27.1364 H           1 MOL       0.0530
     77 H26        14.8443   -8.5075  -23.0276 H           1 MOL       0.0495
     78 H27        14.2922   -7.8765  -24.5562 H           1 MOL       0.0495
     79 H28        16.4276   -6.1932  -23.2401 H           1 MOL       0.0581
     80 H29        15.5061   -6.9221  -21.1590 H           1 MOL       0.0513
     81 H30        13.8687   -6.4808  -21.6740 H           1 MOL       0.0513
     82 H31        13.6547   -4.5755  -19.7226 H           1 MOL       0.0289
     83 H32        13.0506   -2.8155  -18.2525 H           1 MOL       0.0616
     84 H33        12.2770   -0.9038  -17.0294 H           1 MOL       0.0615
     85 H34        13.2546    1.2843  -17.4142 H           1 MOL       0.0610
     86 H35        15.0594    1.5335  -19.0195 H           1 MOL       0.0615
     87 H36        15.8502   -0.3599  -20.2639 H           1 MOL       0.0616
@<TRIPOS>BOND
     1     1     2  ar
     2     6     1  ar
     3     2     3  ar
     4     4     3  ar
     5     5     4  ar
     6     6     5  ar
     7     7     6   1
     8     8     7   1
     9     9     8   1
    10     9    10   2
    11    11     9  am
    12    12    11   1
    13    12    13   1
    14    20    12   1
    15    13    14   1
    16    14    15  ar
    17    14    19  ar
    18    15    16  ar
    19    16    17  ar
    20    18    17  ar
    21    19    18  ar
    22    20    21  ar
    23    20    22  ar
    24    36    20   1
    25    23    24   1
    26    38    23  am
    27    24    25   1
    28    24    28   1
    29    25    26  ar
    30    25    27  ar
    31    28    29   1
    32    29    30  ar
    33    29    35  ar
    34    30    31  ar
    35    31    32  ar
    36    32    33   1
    37    34    32  ar
    38    35    34  ar
    39    37    36   1
    40    37    38   1
    41    37    40   1
    42    38    39   2
    43    40    41   1
    44    41    42   2
    45    41    43   1
    46    42    45   1
    47    43    44   1
    48    44    45   2
    49    45    46   1
    50    46    47  ar
    51    46    51  ar
    52    47    48  ar
    53    48    49  ar
    54    49    50  ar
    55    50    51  ar
    56     1    52   1
    57     2    53   1
    58     3    54   1
    59     4    55   1
    60     5    56   1
    61     7    57   1
    62     7    58   1
    63    11    59   1
    64    12    60   1
    65    13    61   1
    66    13    62   1
    67    15    63   1
    68    16    64   1
    69    17    65   1
    70    18    66   1
    71    19    67   1
    72    23    68   1
    73    24    69   1
    74    28    70   1
    75    28    71   1
    76    30    72   1
    77    31    73   1
    78    33    74   1
    79    34    75   1
    80    35    76   1
    81    36    77   1
    82    36    78   1
    83    37    79   1
    84    40    80   1
    85    40    81   1
    86    42    82   1
    87    47    83   1
    88    48    84   1
    89    49    85   1
    90    50    86   1
    91    51    87   1
@<TRIPOS>SUBSTRUCTURE
     1  MOL      1

