@<TRIPOS>MOLECULE
2xy9_ligand_013
    87    91
SMALL
GAST_HUCK
****
This file was generated by PARSER (from files_GN.cpp)

@<TRIPOS>ATOM
      1 CAQ        16.2290    0.5881  -15.0215 C.ar        1 MOL      -0.0578
      2 CAK        15.7356    1.5146  -14.0845 C.ar        1 MOL      -0.0685
      3 CAH        16.1331    2.8633  -14.1510 C.ar        1 MOL      -0.0687
      4 CAL        17.0231    3.2814  -15.1550 C.ar        1 MOL      -0.0685
      5 CAR        17.5099    2.3555  -16.0969 C.ar        1 MOL      -0.0578
      6 CBP        17.1155    0.9959  -16.0469 C.ar        1 MOL      -0.0130
      7 CBB        17.6635    0.0241  -17.0263 C.3         1 MOL       0.1113
      8 OBJ        16.7889   -1.0973  -17.2392 O.3         1 MOL      -0.2506
      9 CBM        16.0152   -1.3628  -18.3239 C.2         1 MOL       0.3232
     10 OAB        15.9878   -0.5078  -19.3755 O.2         1 MOL      -0.3774
     11 NBI        15.2753   -2.4949  -18.2855 N.am        1 MOL      -0.2418
     12 CBX        14.4044   -3.0162  -19.3091 C.3         1 MOL       0.1176
     13 CBE        13.3178   -1.9760  -19.7473 C.3         1 MOL       0.0205
     14 CBQ        12.5015   -1.4604  -18.6071 C.ar        1 MOL      -0.0393
     15 CAS        11.6539   -2.3376  -17.8856 C.ar        1 MOL      -0.0602
     16 CAM        10.8971   -1.8748  -16.7929 C.ar        1 MOL      -0.0686
     17 CAI        10.9718   -0.5252  -16.4079 C.ar        1 MOL      -0.0687
     18 CAN        11.7948    0.3626  -17.1232 C.ar        1 MOL      -0.0686
     19 CAT        12.5528   -0.1006  -18.2149 C.ar        1 MOL      -0.0602
     20 PBY        15.2964   -3.7804  -20.5193 P.3         1 MOL       0.0154
     21 OAG        16.0330   -4.8100  -19.8283 O.co2       1 MOL      -0.6174
     22 OAD        16.3421   -2.9058  -20.9827 O.co2       1 MOL      -0.6174
     23 N          13.4649   -4.8924  -24.5526 N.am        1 MOL      -0.2694
     24 CA         13.1470   -4.6618  -25.9348 C.3         1 MOL       0.1024
     25 C          12.3359   -5.8076  -26.4150 C.2         1 MOL       0.0619
     26 OXT        11.0041   -5.6760  -26.5780 O.co2       1 MOL      -0.5665
     27 O          12.8888   -7.0185  -26.6508 O.co2       1 MOL      -0.5665
     28 CB         14.3603   -4.2239  -26.8452 C.3         1 MOL       0.0108
     29 CG         14.7482   -5.1541  -27.9469 C.ar        1 MOL      -0.0499
     30 CD1        13.9101   -5.2939  -29.0797 C.ar        1 MOL      -0.0686
     31 CE1        14.2275   -6.1990  -30.1048 C.ar        1 MOL      -0.0398
     32 CZ         15.3978   -6.9786  -30.0256 C.ar        1 MOL       0.0805
     33 OH         15.6843   -7.8629  -31.0158 O.3         1 MOL      -0.3376
     34 CE2        16.2491   -6.8410  -28.9096 C.ar        1 MOL      -0.0398
     35 CD2        15.9304   -5.9321  -27.8858 C.ar        1 MOL      -0.0686
     36 CBF        14.4580   -4.3041  -21.8849 C.3         1 MOL       0.0375
     37 CBV        14.5950   -5.7294  -22.5719 C.3         1 MOL       0.0788
     38 CBN        14.4687   -5.5925  -24.0354 C.2         1 MOL       0.1848
     39 OAC        15.2925   -6.0948  -24.7931 O.2         1 MOL      -0.3964
     40 CBC        15.7928   -6.6344  -22.1116 C.3         1 MOL       0.0422
     41 CBS        15.8051   -8.0077  -22.6699 C.2         1 MOL       0.1411
     42 CBA        14.7962   -8.9555  -22.5846 C.2         1 MOL      -0.0269
     43 OBK        16.8153   -8.5606  -23.3793 O.3         1 MOL      -0.1670
     44 NBG        16.4740   -9.7716  -23.7349 N.2         1 MOL      -0.1519
     45 CBU        15.2389  -10.0753  -23.2870 C.2         1 MOL       0.0430
     46 CBT        14.5597  -11.3038  -23.5177 C.ar        1 MOL      -0.0150
     47 CAU        13.1928  -11.4719  -23.1759 C.ar        1 MOL      -0.0551
     48 CAO        12.5228  -12.6824  -23.4354 C.ar        1 MOL      -0.0621
     49 CAJ        13.2061  -13.7533  -24.0321 C.ar        1 MOL      -0.0626
     50 CAP        14.5616  -13.6118  -24.3740 C.ar        1 MOL      -0.0621
     51 CAV        15.2306  -12.3989  -24.1175 C.ar        1 MOL      -0.0551
     52 H1         15.9348   -0.3885  -14.9460 H           1 MOL       0.0557
     53 H2         15.0893    1.2090  -13.3529 H           1 MOL       0.0599
     54 H3         15.7784    3.5346  -13.4659 H           1 MOL       0.0559
     55 H4         17.3169    4.2590  -15.1991 H           1 MOL       0.0599
     56 H5         18.1633    2.6808  -16.8127 H           1 MOL       0.0557
     57 H6         18.6073   -0.3634  -16.6415 H           1 MOL       0.0776
     58 H7         17.8788    0.5189  -17.9770 H           1 MOL       0.0776
     59 H8         15.3215   -3.0086  -17.4627 H           1 MOL       0.1888
     60 H9         13.8624   -3.8364  -18.8329 H           1 MOL       0.0787
     61 H10        12.6171   -2.4338  -20.4479 H           1 MOL       0.0465
     62 H11        13.8013   -1.1562  -20.2840 H           1 MOL       0.0465
     63 H12        11.5796   -3.3219  -18.1525 H           1 MOL       0.0557
     64 H13        10.2987   -2.5219  -16.2745 H           1 MOL       0.0599
     65 H14        10.4271   -0.1914  -15.6086 H           1 MOL       0.0559
     66 H15        11.8455    1.3437  -16.8435 H           1 MOL       0.0599
     67 H16        13.1484    0.5606  -18.7176 H           1 MOL       0.0557
     68 H17        12.8522   -4.4865  -23.9184 H           1 MOL       0.1876
     69 H18        12.4703   -3.7998  -25.9142 H           1 MOL       0.0747
     70 H19        15.2312   -4.0232  -26.2120 H           1 MOL       0.0446
     71 H20        14.1323   -3.2551  -27.3094 H           1 MOL       0.0446
     72 H21        13.0513   -4.7444  -29.1525 H           1 MOL       0.0530
     73 H22        13.5988   -6.2976  -30.9078 H           1 MOL       0.0525
     74 H23        16.6014   -7.6534  -31.2969 H           1 MOL       0.2458
     75 H24        17.0943   -7.4094  -28.8415 H           1 MOL       0.0525
     76 H25        16.5604   -5.8558  -27.0867 H           1 MOL       0.0530
     77 H26        14.6472   -3.5289  -22.6379 H           1 MOL       0.0495
     78 H27        13.3964   -4.2014  -21.6472 H           1 MOL       0.0495
     79 H28        13.7090   -6.2902  -22.2666 H           1 MOL       0.0581
     80 H29        15.7459   -6.7740  -21.0308 H           1 MOL       0.0513
     81 H30        16.7372   -6.1465  -22.3646 H           1 MOL       0.0513
     82 H31        13.8993   -8.8317  -22.1032 H           1 MOL       0.0289
     83 H32        12.6604  -10.7107  -22.7487 H           1 MOL       0.0616
     84 H33        11.5358  -12.7817  -23.1812 H           1 MOL       0.0615
     85 H34        12.7214  -14.6308  -24.2131 H           1 MOL       0.0610
     86 H35        15.0622  -14.3912  -24.8070 H           1 MOL       0.0615
     87 H36        16.2198  -12.3280  -24.3804 H           1 MOL       0.0616
@<TRIPOS>BOND
     1     1     2  ar
     2     6     1  ar
     3     2     3  ar
     4     4     3  ar
     5     5     4  ar
     6     6     5  ar
     7     7     6   1
     8     8     7   1
     9     9     8   1
    10     9    10   2
    11    11     9  am
    12    12    11   1
    13    12    13   1
    14    20    12   1
    15    13    14   1
    16    14    15  ar
    17    14    19  ar
    18    15    16  ar
    19    16    17  ar
    20    18    17  ar
    21    19    18  ar
    22    20    21  ar
    23    20    22  ar
    24    36    20   1
    25    23    24   1
    26    38    23  am
    27    24    25   1
    28    24    28   1
    29    25    26  ar
    30    25    27  ar
    31    28    29   1
    32    29    30  ar
    33    29    35  ar
    34    30    31  ar
    35    31    32  ar
    36    32    33   1
    37    34    32  ar
    38    35    34  ar
    39    37    36   1
    40    37    38   1
    41    37    40   1
    42    38    39   2
    43    40    41   1
    44    41    42   2
    45    41    43   1
    46    42    45   1
    47    43    44   1
    48    44    45   2
    49    45    46   1
    50    46    47  ar
    51    46    51  ar
    52    47    48  ar
    53    48    49  ar
    54    49    50  ar
    55    50    51  ar
    56     1    52   1
    57     2    53   1
    58     3    54   1
    59     4    55   1
    60     5    56   1
    61     7    57   1
    62     7    58   1
    63    11    59   1
    64    12    60   1
    65    13    61   1
    66    13    62   1
    67    15    63   1
    68    16    64   1
    69    17    65   1
    70    18    66   1
    71    19    67   1
    72    23    68   1
    73    24    69   1
    74    28    70   1
    75    28    71   1
    76    30    72   1
    77    31    73   1
    78    33    74   1
    79    34    75   1
    80    35    76   1
    81    36    77   1
    82    36    78   1
    83    37    79   1
    84    40    80   1
    85    40    81   1
    86    42    82   1
    87    47    83   1
    88    48    84   1
    89    49    85   1
    90    50    86   1
    91    51    87   1
@<TRIPOS>SUBSTRUCTURE
     1  MOL      1

