@<TRIPOS>MOLECULE
2xy9_ligand_083
    87    91
SMALL
GAST_HUCK
****
This file was generated by PARSER (from files_GN.cpp)

@<TRIPOS>ATOM
      1 CAQ        19.3175   -4.2726  -28.4035 C.ar        1 MOL      -0.0578
      2 CAK        20.2696   -3.9167  -29.3822 C.ar        1 MOL      -0.0685
      3 CAH        21.6408   -4.0544  -29.1191 C.ar        1 MOL      -0.0687
      4 CAL        22.0680   -4.5538  -27.8741 C.ar        1 MOL      -0.0685
      5 CAR        21.1203   -4.9466  -26.9118 C.ar        1 MOL      -0.0578
      6 CBP        19.7371   -4.7827  -27.1556 C.ar        1 MOL      -0.0130
      7 CBB        18.7306   -5.2566  -26.1699 C.3         1 MOL       0.1113
      8 OBJ        18.0671   -6.4776  -26.5286 O.3         1 MOL      -0.2506
      9 CBM        18.2160   -7.3457  -27.5595 C.2         1 MOL       0.3232
     10 OAB        19.1149   -7.1612  -28.5594 O.2         1 MOL      -0.3774
     11 NBI        17.4389   -8.4467  -27.5300 N.am        1 MOL      -0.2418
     12 CBX        17.4373   -9.4939  -28.5168 C.3         1 MOL       0.1176
     13 CBE        18.8706  -10.1066  -28.7144 C.3         1 MOL       0.0205
     14 CBQ        19.2521  -10.4697  -30.1245 C.ar        1 MOL      -0.0393
     15 CAS        18.2873  -10.9186  -31.0623 C.ar        1 MOL      -0.0602
     16 CAM        18.6675  -11.4051  -32.3235 C.ar        1 MOL      -0.0686
     17 CAI        20.0248  -11.4261  -32.6923 C.ar        1 MOL      -0.0687
     18 CAN        20.9954  -10.9343  -31.8008 C.ar        1 MOL      -0.0686
     19 CAT        20.6106  -10.4576  -30.5372 C.ar        1 MOL      -0.0602
     20 PBY        16.1722  -10.5401  -28.1546 P.3         1 MOL       0.0154
     21 OAG        15.6833  -10.4076  -26.8107 O.co2       1 MOL      -0.6174
     22 OAD        16.6405  -11.9113  -28.1213 O.co2       1 MOL      -0.6174
     23 N          13.3261   -8.6291  -27.0797 N.am        1 MOL      -0.2694
     24 CA         12.4521   -8.3322  -25.9821 C.3         1 MOL       0.1024
     25 C          12.3996   -6.8545  -25.9003 C.2         1 MOL       0.0619
     26 OXT        11.3858   -6.1693  -26.4774 O.co2       1 MOL      -0.5665
     27 O          13.4084   -6.1473  -25.3395 O.co2       1 MOL      -0.5665
     28 CB         12.9645   -8.9819  -24.6569 C.3         1 MOL       0.0108
     29 CG         12.5800  -10.4149  -24.4619 C.ar        1 MOL      -0.0499
     30 CD1        13.5451  -11.4513  -24.5135 C.ar        1 MOL      -0.0686
     31 CE1        13.1775  -12.7932  -24.2790 C.ar        1 MOL      -0.0398
     32 CZ         11.8479  -13.1188  -23.9659 C.ar        1 MOL       0.0805
     33 OH         11.4767  -14.4032  -23.7244 O.3         1 MOL      -0.3376
     34 CE2        10.8866  -12.0958  -23.8732 C.ar        1 MOL      -0.0398
     35 CD2        11.2500  -10.7557  -24.1302 C.ar        1 MOL      -0.0686
     36 CBF        14.8840  -10.5334  -29.2166 C.3         1 MOL       0.0375
     37 CBV        13.9700   -9.2607  -29.3478 C.3         1 MOL       0.0788
     38 CBN        13.0087   -9.2002  -28.2404 C.2         1 MOL       0.1848
     39 OAC        11.8925   -9.6914  -28.4056 O.2         1 MOL      -0.3964
     40 CBC        14.6527   -7.8727  -29.6338 C.3         1 MOL       0.0422
     41 CBS        15.7178   -7.8671  -30.6680 C.2         1 MOL       0.1411
     42 CBA        16.8034   -7.0226  -30.7462 C.2         1 MOL      -0.0269
     43 OBK        15.9188   -8.8512  -31.5722 O.3         1 MOL      -0.1670
     44 NBG        17.0671   -8.6806  -32.1652 N.2         1 MOL      -0.1519
     45 CBU        17.6920   -7.5903  -31.6670 C.2         1 MOL       0.0430
     46 CBT        19.0347   -7.2345  -31.9650 C.ar        1 MOL      -0.0150
     47 CAU        19.6013   -6.0024  -31.5619 C.ar        1 MOL      -0.0551
     48 CAO        20.9623   -5.7181  -31.7820 C.ar        1 MOL      -0.0621
     49 CAJ        21.7776   -6.6455  -32.4529 C.ar        1 MOL      -0.0626
     50 CAP        21.2293   -7.8586  -32.9000 C.ar        1 MOL      -0.0621
     51 CAV        19.8770   -8.1533  -32.6444 C.ar        1 MOL      -0.0551
     52 H1         18.3220   -4.1819  -28.6218 H           1 MOL       0.0557
     53 H2         19.9576   -3.5447  -30.2773 H           1 MOL       0.0599
     54 H3         22.3307   -3.7881  -29.8287 H           1 MOL       0.0559
     55 H4         23.0659   -4.6525  -27.6836 H           1 MOL       0.0599
     56 H5         21.4427   -5.3666  -26.0398 H           1 MOL       0.0557
     57 H6         17.9732   -4.4832  -26.0158 H           1 MOL       0.0776
     58 H7         19.1987   -5.4342  -25.1990 H           1 MOL       0.0776
     59 H8         16.8170   -8.5129  -26.7860 H           1 MOL       0.1888
     60 H9         17.1741   -9.0288  -29.4689 H           1 MOL       0.0787
     61 H10        19.0027  -10.9862  -28.0872 H           1 MOL       0.0465
     62 H11        19.6170   -9.3989  -28.3407 H           1 MOL       0.0465
     63 H12        17.2966  -10.9107  -30.8252 H           1 MOL       0.0557
     64 H13        17.9580  -11.7419  -32.9771 H           1 MOL       0.0599
     65 H14        20.3003  -11.7787  -33.6109 H           1 MOL       0.0559
     66 H15        21.9816  -10.9334  -32.0688 H           1 MOL       0.0599
     67 H16        21.3371  -10.1372  -29.8950 H           1 MOL       0.0557
     68 H17        14.2367   -8.3039  -26.9940 H           1 MOL       0.1876
     69 H18        11.4322   -8.6798  -26.1769 H           1 MOL       0.0747
     70 H19        12.5620   -8.4296  -23.8057 H           1 MOL       0.0446
     71 H20        14.0514   -8.8652  -24.6051 H           1 MOL       0.0446
     72 H21        14.5236  -11.2389  -24.7014 H           1 MOL       0.0530
     73 H22        13.8885  -13.5266  -24.3206 H           1 MOL       0.0525
     74 H23        11.7931  -14.9342  -24.4876 H           1 MOL       0.2458
     75 H24         9.9243  -12.3195  -23.6147 H           1 MOL       0.0525
     76 H25        10.5330  -10.0301  -24.0465 H           1 MOL       0.0530
     77 H26        14.2430  -11.3805  -28.9534 H           1 MOL       0.0495
     78 H27        15.2844  -10.7720  -30.2003 H           1 MOL       0.0495
     79 H28        13.3698   -9.4492  -30.2498 H           1 MOL       0.0581
     80 H29        15.0877   -7.4945  -28.7083 H           1 MOL       0.0513
     81 H30        13.8978   -7.1516  -29.9491 H           1 MOL       0.0513
     82 H31        16.9891   -6.2191  -30.1375 H           1 MOL       0.0289
     83 H32        19.0226   -5.2953  -31.1130 H           1 MOL       0.0616
     84 H33        21.3636   -4.8381  -31.4599 H           1 MOL       0.0615
     85 H34        22.7649   -6.4413  -32.6209 H           1 MOL       0.0610
     86 H35        21.8124   -8.5337  -33.3992 H           1 MOL       0.0615
     87 H36        19.5196   -9.0648  -32.9427 H           1 MOL       0.0616
@<TRIPOS>BOND
     1     1     2  ar
     2     6     1  ar
     3     2     3  ar
     4     4     3  ar
     5     5     4  ar
     6     6     5  ar
     7     7     6   1
     8     8     7   1
     9     9     8   1
    10     9    10   2
    11    11     9  am
    12    12    11   1
    13    12    13   1
    14    20    12   1
    15    13    14   1
    16    14    15  ar
    17    14    19  ar
    18    15    16  ar
    19    16    17  ar
    20    18    17  ar
    21    19    18  ar
    22    20    21  ar
    23    20    22  ar
    24    36    20   1
    25    23    24   1
    26    38    23  am
    27    24    25   1
    28    24    28   1
    29    25    26  ar
    30    25    27  ar
    31    28    29   1
    32    29    30  ar
    33    29    35  ar
    34    30    31  ar
    35    31    32  ar
    36    32    33   1
    37    34    32  ar
    38    35    34  ar
    39    37    36   1
    40    37    38   1
    41    37    40   1
    42    38    39   2
    43    40    41   1
    44    41    42   2
    45    41    43   1
    46    42    45   1
    47    43    44   1
    48    44    45   2
    49    45    46   1
    50    46    47  ar
    51    46    51  ar
    52    47    48  ar
    53    48    49  ar
    54    49    50  ar
    55    50    51  ar
    56     1    52   1
    57     2    53   1
    58     3    54   1
    59     4    55   1
    60     5    56   1
    61     7    57   1
    62     7    58   1
    63    11    59   1
    64    12    60   1
    65    13    61   1
    66    13    62   1
    67    15    63   1
    68    16    64   1
    69    17    65   1
    70    18    66   1
    71    19    67   1
    72    23    68   1
    73    24    69   1
    74    28    70   1
    75    28    71   1
    76    30    72   1
    77    31    73   1
    78    33    74   1
    79    34    75   1
    80    35    76   1
    81    36    77   1
    82    36    78   1
    83    37    79   1
    84    40    80   1
    85    40    81   1
    86    42    82   1
    87    47    83   1
    88    48    84   1
    89    49    85   1
    90    50    86   1
    91    51    87   1
@<TRIPOS>SUBSTRUCTURE
     1  MOL      1

