@<TRIPOS>MOLECULE
2xy9_ligand_057
    87    91
SMALL
GAST_HUCK
****
This file was generated by PARSER (from files_GN.cpp)

@<TRIPOS>ATOM
      1 CAQ        15.7843  -12.7731  -23.0465 C.ar        1 MOL      -0.0578
      2 CAK        16.9319  -13.5654  -23.2471 C.ar        1 MOL      -0.0685
      3 CAH        16.8825  -14.6621  -24.1239 C.ar        1 MOL      -0.0687
      4 CAL        15.6824  -14.9740  -24.7879 C.ar        1 MOL      -0.0685
      5 CAR        14.5372  -14.1783  -24.5919 C.ar        1 MOL      -0.0578
      6 CBP        14.5717  -13.0631  -23.7204 C.ar        1 MOL      -0.0130
      7 CBB        13.3626  -12.2086  -23.5458 C.3         1 MOL       0.1113
      8 OBJ        13.1356  -11.2004  -24.5473 O.3         1 MOL      -0.2506
      9 CBM        13.9703  -10.6442  -25.4701 C.2         1 MOL       0.3232
     10 OAB        15.2686  -11.0365  -25.5624 O.2         1 MOL      -0.3774
     11 NBI        13.4646   -9.6550  -26.2548 N.am        1 MOL      -0.2418
     12 CBX        14.2371   -8.8919  -27.1971 C.3         1 MOL       0.1176
     13 CBE        14.0597   -9.4775  -28.6406 C.3         1 MOL       0.0205
     14 CBQ        15.2466   -9.2613  -29.5247 C.ar        1 MOL      -0.0393
     15 CAS        15.4821   -8.0238  -30.1759 C.ar        1 MOL      -0.0602
     16 CAM        16.6001   -7.8490  -31.0126 C.ar        1 MOL      -0.0686
     17 CAI        17.5044   -8.9079  -31.2109 C.ar        1 MOL      -0.0687
     18 CAN        17.2934  -10.1391  -30.5650 C.ar        1 MOL      -0.0686
     19 CAT        16.1747  -10.3134  -29.7293 C.ar        1 MOL      -0.0602
     20 PBY        13.9219   -7.2487  -27.0096 P.3         1 MOL       0.0154
     21 OAG        13.4513   -6.6955  -28.2622 O.co2       1 MOL      -0.6174
     22 OAD        15.2120   -6.6265  -26.7990 O.co2       1 MOL      -0.6174
     23 N          13.3786   -4.5631  -23.1205 N.am        1 MOL      -0.2694
     24 CA         14.2156   -4.2079  -21.9975 C.3         1 MOL       0.1024
     25 C          15.2382   -3.1746  -22.2820 C.2         1 MOL       0.0619
     26 OXT        16.0351   -2.7447  -21.2777 O.co2       1 MOL      -0.5665
     27 O          15.2187   -2.4320  -23.4138 O.co2       1 MOL      -0.5665
     28 CB         14.7854   -5.4318  -21.2000 C.3         1 MOL       0.0108
     29 CG         15.4045   -6.5418  -21.9813 C.ar        1 MOL      -0.0499
     30 CD1        16.4473   -6.2946  -22.9084 C.ar        1 MOL      -0.0686
     31 CE1        16.9768   -7.3336  -23.6958 C.ar        1 MOL      -0.0398
     32 CZ         16.4980   -8.6471  -23.5508 C.ar        1 MOL       0.0805
     33 OH         17.0099   -9.6409  -24.3161 O.3         1 MOL      -0.3376
     34 CE2        15.4960   -8.9200  -22.6029 C.ar        1 MOL      -0.0398
     35 CD2        14.9618   -7.8790  -21.8221 C.ar        1 MOL      -0.0686
     36 CBF        12.8287   -6.7327  -25.8520 C.3         1 MOL       0.0375
     37 CBV        12.7802   -5.2206  -25.3914 C.3         1 MOL       0.0788
     38 CBN        13.7555   -4.9468  -24.3352 C.2         1 MOL       0.1848
     39 OAC        14.9467   -5.0555  -24.6127 O.2         1 MOL      -0.3964
     40 CBC        12.7196   -4.0744  -26.4713 C.3         1 MOL       0.0422
     41 CBS        13.8378   -3.9066  -27.4360 C.2         1 MOL       0.1411
     42 CBA        15.1877   -3.6910  -27.1997 C.2         1 MOL      -0.0269
     43 OBK        13.7047   -4.0635  -28.7739 O.3         1 MOL      -0.1670
     44 NBG        14.8818   -4.0606  -29.3361 N.2         1 MOL      -0.1519
     45 CBU        15.8465   -3.8913  -28.4099 C.2         1 MOL       0.0430
     46 CBT        17.2402   -4.0818  -28.6479 C.ar        1 MOL      -0.0150
     47 CAU        18.1822   -4.1286  -27.5886 C.ar        1 MOL      -0.0551
     48 CAO        19.5288   -4.4563  -27.8262 C.ar        1 MOL      -0.0621
     49 CAJ        19.9713   -4.7233  -29.1367 C.ar        1 MOL      -0.0626
     50 CAP        19.0584   -4.6687  -30.2026 C.ar        1 MOL      -0.0621
     51 CAV        17.7095   -4.3519  -29.9603 C.ar        1 MOL      -0.0551
     52 H1         15.8465  -11.9755  -22.4093 H           1 MOL       0.0557
     53 H2         17.8065  -13.3358  -22.7671 H           1 MOL       0.0599
     54 H3         17.7152  -15.2378  -24.2711 H           1 MOL       0.0559
     55 H4         15.6455  -15.7771  -25.4187 H           1 MOL       0.0599
     56 H5         13.6759  -14.4203  -25.0888 H           1 MOL       0.0557
     57 H6         13.3987  -11.6916  -22.5856 H           1 MOL       0.0776
     58 H7         12.4796  -12.8521  -23.5165 H           1 MOL       0.0776
     59 H8         12.5155   -9.4498  -26.1777 H           1 MOL       0.1888
     60 H9         15.2951   -9.0215  -26.9417 H           1 MOL       0.0787
     61 H10        13.1599   -9.0902  -29.1317 H           1 MOL       0.0465
     62 H11        13.8876  -10.5566  -28.5563 H           1 MOL       0.0465
     63 H12        14.8319   -7.2448  -30.0719 H           1 MOL       0.0557
     64 H13        16.7487   -6.9556  -31.4888 H           1 MOL       0.0599
     65 H14        18.3101   -8.7825  -31.8292 H           1 MOL       0.0559
     66 H15        17.9497  -10.9092  -30.7050 H           1 MOL       0.0599
     67 H16        16.0422  -11.2173  -29.2708 H           1 MOL       0.0557
     68 H17        12.4176   -4.4698  -22.9739 H           1 MOL       0.1876
     69 H18        13.5293   -3.7083  -21.3038 H           1 MOL       0.0747
     70 H19        13.9641   -5.8242  -20.5957 H           1 MOL       0.0446
     71 H20        15.5335   -5.0833  -20.4806 H           1 MOL       0.0446
     72 H21        16.8051   -5.3493  -23.0488 H           1 MOL       0.0530
     73 H22        17.6956   -7.1282  -24.3952 H           1 MOL       0.0525
     74 H23        16.3505  -10.3837  -24.3014 H           1 MOL       0.2458
     75 H24        15.1594   -9.8731  -22.4755 H           1 MOL       0.0525
     76 H25        14.2389   -8.1154  -21.1470 H           1 MOL       0.0530
     77 H26        12.9839   -7.3545  -24.9649 H           1 MOL       0.0495
     78 H27        11.8386   -7.0000  -26.2329 H           1 MOL       0.0495
     79 H28        11.7942   -5.1475  -24.9071 H           1 MOL       0.0581
     80 H29        12.5946   -3.1144  -25.9606 H           1 MOL       0.0513
     81 H30        11.8140   -4.2330  -27.0632 H           1 MOL       0.0513
     82 H31        15.6230   -3.5318  -26.2909 H           1 MOL       0.0289
     83 H32        17.8986   -3.9571  -26.6215 H           1 MOL       0.0616
     84 H33        20.1906   -4.5031  -27.0507 H           1 MOL       0.0615
     85 H34        20.9489   -4.9576  -29.3088 H           1 MOL       0.0610
     86 H35        19.3754   -4.8745  -31.1524 H           1 MOL       0.0615
     87 H36        17.0689   -4.3472  -30.7558 H           1 MOL       0.0616
@<TRIPOS>BOND
     1     1     2  ar
     2     6     1  ar
     3     2     3  ar
     4     4     3  ar
     5     5     4  ar
     6     6     5  ar
     7     7     6   1
     8     8     7   1
     9     9     8   1
    10     9    10   2
    11    11     9  am
    12    12    11   1
    13    12    13   1
    14    20    12   1
    15    13    14   1
    16    14    15  ar
    17    14    19  ar
    18    15    16  ar
    19    16    17  ar
    20    18    17  ar
    21    19    18  ar
    22    20    21  ar
    23    20    22  ar
    24    36    20   1
    25    23    24   1
    26    38    23  am
    27    24    25   1
    28    24    28   1
    29    25    26  ar
    30    25    27  ar
    31    28    29   1
    32    29    30  ar
    33    29    35  ar
    34    30    31  ar
    35    31    32  ar
    36    32    33   1
    37    34    32  ar
    38    35    34  ar
    39    37    36   1
    40    37    38   1
    41    37    40   1
    42    38    39   2
    43    40    41   1
    44    41    42   2
    45    41    43   1
    46    42    45   1
    47    43    44   1
    48    44    45   2
    49    45    46   1
    50    46    47  ar
    51    46    51  ar
    52    47    48  ar
    53    48    49  ar
    54    49    50  ar
    55    50    51  ar
    56     1    52   1
    57     2    53   1
    58     3    54   1
    59     4    55   1
    60     5    56   1
    61     7    57   1
    62     7    58   1
    63    11    59   1
    64    12    60   1
    65    13    61   1
    66    13    62   1
    67    15    63   1
    68    16    64   1
    69    17    65   1
    70    18    66   1
    71    19    67   1
    72    23    68   1
    73    24    69   1
    74    28    70   1
    75    28    71   1
    76    30    72   1
    77    31    73   1
    78    33    74   1
    79    34    75   1
    80    35    76   1
    81    36    77   1
    82    36    78   1
    83    37    79   1
    84    40    80   1
    85    40    81   1
    86    42    82   1
    87    47    83   1
    88    48    84   1
    89    49    85   1
    90    50    86   1
    91    51    87   1
@<TRIPOS>SUBSTRUCTURE
     1  MOL      1

