@<TRIPOS>MOLECULE
2xy9_ligand_042
    87    91
SMALL
GAST_HUCK
****
This file was generated by PARSER (from files_GN.cpp)

@<TRIPOS>ATOM
      1 CAQ        17.0358   -4.1024  -24.8437 C.ar        1 MOL      -0.0578
      2 CAK        17.9158   -5.1154  -25.2794 C.ar        1 MOL      -0.0685
      3 CAH        18.2373   -6.1679  -24.4136 C.ar        1 MOL      -0.0687
      4 CAL        17.6448   -6.2394  -23.1356 C.ar        1 MOL      -0.0685
      5 CAR        16.7269   -5.2570  -22.7248 C.ar        1 MOL      -0.0578
      6 CBP        16.4371   -4.1544  -23.5628 C.ar        1 MOL      -0.0130
      7 CBB        15.4518   -3.1176  -23.1438 C.3         1 MOL       0.1113
      8 OBJ        14.1094   -3.4326  -23.5414 O.3         1 MOL      -0.2506
      9 CBM        13.7531   -4.0358  -24.7070 C.2         1 MOL       0.3232
     10 OAB        14.7265   -4.4923  -25.5244 O.2         1 MOL      -0.3774
     11 NBI        12.4581   -4.3105  -24.9559 N.am        1 MOL      -0.2418
     12 CBX        11.9437   -5.1674  -25.9939 C.3         1 MOL       0.1176
     13 CBE        12.1007   -4.5942  -27.4581 C.3         1 MOL       0.0205
     14 CBQ        13.4558   -4.3257  -28.0317 C.ar        1 MOL      -0.0393
     15 CAS        14.2969   -5.3708  -28.4829 C.ar        1 MOL      -0.0602
     16 CAM        15.6263   -5.1161  -28.8784 C.ar        1 MOL      -0.0686
     17 CAI        16.1157   -3.7985  -28.8802 C.ar        1 MOL      -0.0687
     18 CAN        15.2740   -2.7370  -28.5100 C.ar        1 MOL      -0.0686
     19 CAT        13.9513   -2.9986  -28.0999 C.ar        1 MOL      -0.0602
     20 PBY        12.2833   -6.7888  -25.6984 P.3         1 MOL       0.0154
     21 OAG        12.5046   -7.4951  -26.9589 O.co2       1 MOL      -0.6174
     22 OAD        11.0937   -7.4707  -25.2034 O.co2       1 MOL      -0.6174
     23 N          13.5197  -10.6255  -25.6769 N.am        1 MOL      -0.2694
     24 CA         13.6503  -11.5573  -26.7611 C.3         1 MOL       0.1024
     25 C          13.1542  -10.9299  -28.0039 C.2         1 MOL       0.0619
     26 OXT        11.8400  -10.6487  -28.1522 O.co2       1 MOL      -0.5665
     27 O          14.0039  -10.5626  -28.9870 O.co2       1 MOL      -0.5665
     28 CB         12.8914  -12.8717  -26.3967 C.3         1 MOL       0.0108
     29 CG         12.5919  -13.8342  -27.4988 C.ar        1 MOL      -0.0499
     30 CD1        11.4732  -14.6982  -27.3937 C.ar        1 MOL      -0.0686
     31 CE1        11.1636  -15.6120  -28.4159 C.ar        1 MOL      -0.0398
     32 CZ         11.9649  -15.6719  -29.5726 C.ar        1 MOL       0.0805
     33 OH         11.6425  -16.5272  -30.5697 O.3         1 MOL      -0.3376
     34 CE2        13.0975  -14.8481  -29.6802 C.ar        1 MOL      -0.0398
     35 CD2        13.4181  -13.9475  -28.6451 C.ar        1 MOL      -0.0686
     36 CBF        13.5657   -7.1587  -24.6942 C.3         1 MOL       0.0375
     37 CBV        13.8673   -8.6525  -24.3479 C.3         1 MOL       0.0788
     38 CBN        14.1397   -9.4661  -25.5383 C.2         1 MOL       0.1848
     39 OAC        14.9610   -9.0730  -26.3596 O.2         1 MOL      -0.3964
     40 CBC        15.0450   -8.7228  -23.3196 C.3         1 MOL       0.0422
     41 CBS        15.4844  -10.0778  -22.9467 C.2         1 MOL       0.1411
     42 CBA        15.9214  -11.0754  -23.8058 C.2         1 MOL      -0.0269
     43 OBK        15.5904  -10.5568  -21.6865 O.3         1 MOL      -0.1670
     44 NBG        16.0404  -11.7816  -21.7341 N.2         1 MOL      -0.1519
     45 CBU        16.2269  -12.1729  -23.0125 C.2         1 MOL       0.0430
     46 CBT        16.6353  -13.4568  -23.4528 C.ar        1 MOL      -0.0150
     47 CAU        16.3191  -13.9295  -24.7534 C.ar        1 MOL      -0.0551
     48 CAO        16.6755  -15.2283  -25.1580 C.ar        1 MOL      -0.0621
     49 CAJ        17.3601  -16.0773  -24.2725 C.ar        1 MOL      -0.0626
     50 CAP        17.6935  -15.6239  -22.9843 C.ar        1 MOL      -0.0621
     51 CAV        17.3353  -14.3240  -22.5782 C.ar        1 MOL      -0.0551
     52 H1         16.8060   -3.3499  -25.4975 H           1 MOL       0.0557
     53 H2         18.3460   -5.0581  -26.2042 H           1 MOL       0.0599
     54 H3         18.8945   -6.8883  -24.7118 H           1 MOL       0.0559
     55 H4         17.8729   -7.0130  -22.5085 H           1 MOL       0.0599
     56 H5         16.2706   -5.3427  -21.8125 H           1 MOL       0.0557
     57 H6         15.7096   -2.1448  -23.5717 H           1 MOL       0.0776
     58 H7         15.4744   -3.0040  -22.0589 H           1 MOL       0.0776
     59 H8         11.8078   -3.9565  -24.3223 H           1 MOL       0.1888
     60 H9         10.8632   -5.1087  -25.8245 H           1 MOL       0.0787
     61 H10        11.5529   -3.6476  -27.4711 H           1 MOL       0.0465
     62 H11        11.5657   -5.2343  -28.1653 H           1 MOL       0.0465
     63 H12        13.9636   -6.3296  -28.5211 H           1 MOL       0.0557
     64 H13        16.2329   -5.8878  -29.1657 H           1 MOL       0.0599
     65 H14        17.0812   -3.6113  -29.1737 H           1 MOL       0.0559
     66 H15        15.6282   -1.7779  -28.5254 H           1 MOL       0.0599
     67 H16        13.3732   -2.2126  -27.8011 H           1 MOL       0.0557
     68 H17        12.9311  -10.8934  -24.9532 H           1 MOL       0.1876
     69 H18        14.7088  -11.8093  -26.8775 H           1 MOL       0.0747
     70 H19        11.9477  -12.5838  -25.9199 H           1 MOL       0.0446
     71 H20        13.4704  -13.4134  -25.6439 H           1 MOL       0.0446
     72 H21        10.8701  -14.6693  -26.5659 H           1 MOL       0.0530
     73 H22        10.3508  -16.2263  -28.3222 H           1 MOL       0.0525
     74 H23        12.2288  -17.2990  -30.4317 H           1 MOL       0.2458
     75 H24        13.6901  -14.8978  -30.5143 H           1 MOL       0.0525
     76 H25        14.2532  -13.3679  -28.7470 H           1 MOL       0.0530
     77 H26        13.3913   -6.6323  -23.7516 H           1 MOL       0.0495
     78 H27        14.4632   -6.7358  -25.1432 H           1 MOL       0.0495
     79 H28        12.9888   -9.0523  -23.8301 H           1 MOL       0.0581
     80 H29        14.7483   -8.1994  -22.4052 H           1 MOL       0.0513
     81 H30        15.9159   -8.2047  -23.7218 H           1 MOL       0.0513
     82 H31        16.0096  -11.0080  -24.8206 H           1 MOL       0.0289
     83 H32        15.7960  -13.3468  -25.4136 H           1 MOL       0.0616
     84 H33        16.4279  -15.5614  -26.0932 H           1 MOL       0.0615
     85 H34        17.6147  -17.0207  -24.5665 H           1 MOL       0.0610
     86 H35        18.2039  -16.2353  -22.3447 H           1 MOL       0.0615
     87 H36        17.5924  -14.0156  -21.6366 H           1 MOL       0.0616
@<TRIPOS>BOND
     1     1     2  ar
     2     6     1  ar
     3     2     3  ar
     4     4     3  ar
     5     5     4  ar
     6     6     5  ar
     7     7     6   1
     8     8     7   1
     9     9     8   1
    10     9    10   2
    11    11     9  am
    12    12    11   1
    13    12    13   1
    14    20    12   1
    15    13    14   1
    16    14    15  ar
    17    14    19  ar
    18    15    16  ar
    19    16    17  ar
    20    18    17  ar
    21    19    18  ar
    22    20    21  ar
    23    20    22  ar
    24    36    20   1
    25    23    24   1
    26    38    23  am
    27    24    25   1
    28    24    28   1
    29    25    26  ar
    30    25    27  ar
    31    28    29   1
    32    29    30  ar
    33    29    35  ar
    34    30    31  ar
    35    31    32  ar
    36    32    33   1
    37    34    32  ar
    38    35    34  ar
    39    37    36   1
    40    37    38   1
    41    37    40   1
    42    38    39   2
    43    40    41   1
    44    41    42   2
    45    41    43   1
    46    42    45   1
    47    43    44   1
    48    44    45   2
    49    45    46   1
    50    46    47  ar
    51    46    51  ar
    52    47    48  ar
    53    48    49  ar
    54    49    50  ar
    55    50    51  ar
    56     1    52   1
    57     2    53   1
    58     3    54   1
    59     4    55   1
    60     5    56   1
    61     7    57   1
    62     7    58   1
    63    11    59   1
    64    12    60   1
    65    13    61   1
    66    13    62   1
    67    15    63   1
    68    16    64   1
    69    17    65   1
    70    18    66   1
    71    19    67   1
    72    23    68   1
    73    24    69   1
    74    28    70   1
    75    28    71   1
    76    30    72   1
    77    31    73   1
    78    33    74   1
    79    34    75   1
    80    35    76   1
    81    36    77   1
    82    36    78   1
    83    37    79   1
    84    40    80   1
    85    40    81   1
    86    42    82   1
    87    47    83   1
    88    48    84   1
    89    49    85   1
    90    50    86   1
    91    51    87   1
@<TRIPOS>SUBSTRUCTURE
     1  MOL      1

