@<TRIPOS>MOLECULE
2xy9_ligand_007
    87    91
SMALL
GAST_HUCK
****
This file was generated by PARSER (from files_GN.cpp)

@<TRIPOS>ATOM
      1 CAQ        16.2738    4.5507  -17.4450 C.ar        1 MOL      -0.0578
      2 CAK        15.4189    5.5304  -16.9048 C.ar        1 MOL      -0.0685
      3 CAH        14.1195    5.6919  -17.4187 C.ar        1 MOL      -0.0687
      4 CAL        13.6770    4.8769  -18.4755 C.ar        1 MOL      -0.0685
      5 CAR        14.5357    3.9060  -19.0241 C.ar        1 MOL      -0.0578
      6 CBP        15.8419    3.7234  -18.5119 C.ar        1 MOL      -0.0130
      7 CBB        16.7379    2.7063  -19.1156 C.3         1 MOL       0.1113
      8 OBJ        16.0635    1.4466  -19.2688 O.3         1 MOL      -0.2506
      9 CBM        16.3679    0.2431  -18.7193 C.2         1 MOL       0.3232
     10 OAB        17.4038    0.1360  -17.8501 O.2         1 MOL      -0.3774
     11 NBI        15.5921   -0.8177  -19.0475 N.am        1 MOL      -0.2418
     12 CBX        15.6845   -2.1328  -18.4766 C.3         1 MOL       0.1176
     13 CBE        14.5939   -2.3975  -17.3670 C.3         1 MOL       0.0205
     14 CBQ        13.6392   -1.2840  -17.0815 C.ar        1 MOL      -0.0393
     15 CAS        13.6401   -0.6180  -15.8313 C.ar        1 MOL      -0.0602
     16 CAM        12.7578    0.4507  -15.5820 C.ar        1 MOL      -0.0686
     17 CAI        11.8637    0.8742  -16.5811 C.ar        1 MOL      -0.0687
     18 CAN        11.8349    0.2110  -17.8207 C.ar        1 MOL      -0.0686
     19 CAT        12.7060   -0.8676  -18.0634 C.ar        1 MOL      -0.0602
     20 PBY        15.7934   -3.2929  -19.6998 P.3         1 MOL       0.0154
     21 OAG        16.4973   -4.3994  -19.0974 O.co2       1 MOL      -0.6174
     22 OAD        16.6278   -2.8075  -20.7723 O.co2       1 MOL      -0.6174
     23 N          13.3164   -5.1249  -23.6963 N.am        1 MOL      -0.2694
     24 CA         13.0854   -4.8746  -25.0913 C.3         1 MOL       0.1024
     25 C          12.1949   -5.9488  -25.5969 C.2         1 MOL       0.0619
     26 OXT        12.5170   -7.2534  -25.4102 O.co2       1 MOL      -0.5665
     27 O          11.1104   -5.6667  -26.3623 O.co2       1 MOL      -0.5665
     28 CB         14.4185   -4.8273  -25.9274 C.3         1 MOL       0.0108
     29 CG         14.7135   -3.4924  -26.5199 C.ar        1 MOL      -0.0499
     30 CD1        15.6184   -2.6049  -25.8917 C.ar        1 MOL      -0.0686
     31 CE1        15.8891   -1.3418  -26.4475 C.ar        1 MOL      -0.0398
     32 CZ         15.2780   -0.9556  -27.6531 C.ar        1 MOL       0.0805
     33 OH         15.5201    0.2807  -28.1542 O.3         1 MOL      -0.3376
     34 CE2        14.3877   -1.8354  -28.2973 C.ar        1 MOL      -0.0398
     35 CD2        14.0996   -3.0914  -27.7307 C.ar        1 MOL      -0.0686
     36 CBF        14.3606   -3.8945  -20.3339 C.3         1 MOL       0.0375
     37 CBV        14.3405   -4.9363  -21.5259 C.3         1 MOL       0.0788
     38 CBN        14.0134   -4.3772  -22.8420 C.2         1 MOL       0.1848
     39 OAC        14.4982   -3.3010  -23.1809 O.2         1 MOL      -0.3964
     40 CBC        15.5747   -5.8982  -21.6579 C.3         1 MOL       0.0422
     41 CBS        15.2614   -7.2887  -22.0625 C.2         1 MOL       0.1411
     42 CBA        15.8209   -8.0606  -23.0767 C.2         1 MOL      -0.0269
     43 OBK        14.4622   -8.0996  -21.3366 O.3         1 MOL      -0.1670
     44 NBG        14.4961   -9.3000  -21.8467 N.2         1 MOL      -0.1519
     45 CBU        15.3207   -9.3526  -22.9129 C.2         1 MOL       0.0430
     46 CBT        15.6217  -10.5561  -23.6166 C.ar        1 MOL      -0.0150
     47 CAU        16.5881  -10.6030  -24.6496 C.ar        1 MOL      -0.0551
     48 CAO        16.9033  -11.8122  -25.3031 C.ar        1 MOL      -0.0621
     49 CAJ        16.2510  -13.0003  -24.9406 C.ar        1 MOL      -0.0626
     50 CAP        15.2811  -12.9817  -23.9223 C.ar        1 MOL      -0.0621
     51 CAV        14.9717  -11.7709  -23.2707 C.ar        1 MOL      -0.0551
     52 H1         17.2180    4.4555  -17.0632 H           1 MOL       0.0557
     53 H2         15.7426    6.1302  -16.1416 H           1 MOL       0.0599
     54 H3         13.4984    6.4043  -17.0277 H           1 MOL       0.0559
     55 H4         12.7333    4.9938  -18.8493 H           1 MOL       0.0599
     56 H5         14.1988    3.3279  -19.7978 H           1 MOL       0.0557
     57 H6         17.6554    2.5942  -18.5295 H           1 MOL       0.0776
     58 H7         17.0292    3.0502  -20.1096 H           1 MOL       0.0776
     59 H8         14.8512   -0.6514  -19.6525 H           1 MOL       0.1888
     60 H9         16.6556   -2.1999  -17.9726 H           1 MOL       0.0787
     61 H10        15.1258   -2.6588  -16.4430 H           1 MOL       0.0465
     62 H11        13.9844   -3.2755  -17.5805 H           1 MOL       0.0465
     63 H12        14.2826   -0.9054  -15.0918 H           1 MOL       0.0557
     64 H13        12.7679    0.9212  -14.6750 H           1 MOL       0.0599
     65 H14        11.2304    1.6582  -16.4041 H           1 MOL       0.0559
     66 H15        11.1803    0.5157  -18.5440 H           1 MOL       0.0599
     67 H16        12.6643   -1.3367  -18.9686 H           1 MOL       0.0557
     68 H17        12.9617   -5.9513  -23.3397 H           1 MOL       0.1876
     69 H18        12.5376   -3.9264  -25.1816 H           1 MOL       0.0747
     70 H19        14.4071   -5.5547  -26.7507 H           1 MOL       0.0446
     71 H20        15.2520   -5.1422  -25.2944 H           1 MOL       0.0446
     72 H21        16.0784   -2.8668  -25.0173 H           1 MOL       0.0530
     73 H22        16.5240   -0.6991  -25.9701 H           1 MOL       0.0525
     74 H23        16.0926    0.1302  -28.9352 H           1 MOL       0.2458
     75 H24        13.9400   -1.5536  -29.1712 H           1 MOL       0.0525
     76 H25        13.4471   -3.7134  -28.2108 H           1 MOL       0.0530
     77 H26        13.7420   -3.0325  -20.5951 H           1 MOL       0.0495
     78 H27        13.8609   -4.3841  -19.4943 H           1 MOL       0.0495
     79 H28        13.4818   -5.5644  -21.2750 H           1 MOL       0.0581
     80 H29        16.0494   -6.0159  -20.6747 H           1 MOL       0.0513
     81 H30        16.3318   -5.4700  -22.3174 H           1 MOL       0.0513
     82 H31        16.5039   -7.7374  -23.7625 H           1 MOL       0.0289
     83 H32        17.0873   -9.7583  -24.9302 H           1 MOL       0.0616
     84 H33        17.6140  -11.8288  -26.0403 H           1 MOL       0.0615
     85 H34        16.4779  -13.8789  -25.4136 H           1 MOL       0.0610
     86 H35        14.8073  -13.8458  -23.6519 H           1 MOL       0.0615
     87 H36        14.2676  -11.7975  -22.5297 H           1 MOL       0.0616
@<TRIPOS>BOND
     1     1     2  ar
     2     6     1  ar
     3     2     3  ar
     4     4     3  ar
     5     5     4  ar
     6     6     5  ar
     7     7     6   1
     8     8     7   1
     9     9     8   1
    10     9    10   2
    11    11     9  am
    12    12    11   1
    13    12    13   1
    14    20    12   1
    15    13    14   1
    16    14    15  ar
    17    14    19  ar
    18    15    16  ar
    19    16    17  ar
    20    18    17  ar
    21    19    18  ar
    22    20    21  ar
    23    20    22  ar
    24    36    20   1
    25    23    24   1
    26    38    23  am
    27    24    25   1
    28    24    28   1
    29    25    26  ar
    30    25    27  ar
    31    28    29   1
    32    29    30  ar
    33    29    35  ar
    34    30    31  ar
    35    31    32  ar
    36    32    33   1
    37    34    32  ar
    38    35    34  ar
    39    37    36   1
    40    37    38   1
    41    37    40   1
    42    38    39   2
    43    40    41   1
    44    41    42   2
    45    41    43   1
    46    42    45   1
    47    43    44   1
    48    44    45   2
    49    45    46   1
    50    46    47  ar
    51    46    51  ar
    52    47    48  ar
    53    48    49  ar
    54    49    50  ar
    55    50    51  ar
    56     1    52   1
    57     2    53   1
    58     3    54   1
    59     4    55   1
    60     5    56   1
    61     7    57   1
    62     7    58   1
    63    11    59   1
    64    12    60   1
    65    13    61   1
    66    13    62   1
    67    15    63   1
    68    16    64   1
    69    17    65   1
    70    18    66   1
    71    19    67   1
    72    23    68   1
    73    24    69   1
    74    28    70   1
    75    28    71   1
    76    30    72   1
    77    31    73   1
    78    33    74   1
    79    34    75   1
    80    35    76   1
    81    36    77   1
    82    36    78   1
    83    37    79   1
    84    40    80   1
    85    40    81   1
    86    42    82   1
    87    47    83   1
    88    48    84   1
    89    49    85   1
    90    50    86   1
    91    51    87   1
@<TRIPOS>SUBSTRUCTURE
     1  MOL      1

