@<TRIPOS>MOLECULE
2xy9_ligand_021
    87    91
SMALL
GAST_HUCK
****
This file was generated by PARSER (from files_GN.cpp)

@<TRIPOS>ATOM
      1 CAQ        14.6448   -1.7710  -11.3977 C.ar        1 MOL      -0.0578
      2 CAK        14.6080   -0.6944  -10.4888 C.ar        1 MOL      -0.0685
      3 CAH        15.1566    0.5501  -10.8499 C.ar        1 MOL      -0.0687
      4 CAL        15.7354    0.7173  -12.1210 C.ar        1 MOL      -0.0685
      5 CAR        15.7698   -0.3585  -13.0263 C.ar        1 MOL      -0.0578
      6 CBP        15.2383   -1.6200  -12.6728 C.ar        1 MOL      -0.0130
      7 CBB        15.3397   -2.7551  -13.6285 C.3         1 MOL       0.1113
      8 OBJ        14.7630   -2.4491  -14.9038 O.3         1 MOL      -0.2506
      9 CBM        13.4670   -2.6537  -15.2558 C.2         1 MOL       0.3232
     10 OAB        12.5840   -3.1952  -14.3733 O.2         1 MOL      -0.3774
     11 NBI        13.0826   -2.2788  -16.4980 N.am        1 MOL      -0.2418
     12 CBX        11.7420   -2.3085  -17.0103 C.3         1 MOL       0.1176
     13 CBE        11.2748   -0.8148  -17.1861 C.3         1 MOL       0.0205
     14 CBQ         9.9030   -0.4795  -16.7010 C.ar        1 MOL      -0.0393
     15 CAS         9.1883    0.6207  -17.2314 C.ar        1 MOL      -0.0602
     16 CAM         7.9576    1.0190  -16.6731 C.ar        1 MOL      -0.0686
     17 CAI         7.4146    0.3044  -15.5884 C.ar        1 MOL      -0.0687
     18 CAN         8.1131   -0.7864  -15.0464 C.ar        1 MOL      -0.0686
     19 CAT         9.3609   -1.1551  -15.5796 C.ar        1 MOL      -0.0602
     20 PBY        11.7090   -3.2849  -18.3735 P.3         1 MOL       0.0154
     21 OAG        10.3276   -3.3396  -18.8090 O.co2       1 MOL      -0.6174
     22 OAD        11.9252   -4.6440  -17.9376 O.co2       1 MOL      -0.6174
     23 N          14.1223   -4.6316  -22.2131 N.am        1 MOL      -0.2694
     24 CA         14.6423   -4.7662  -23.5485 C.3         1 MOL       0.1024
     25 C          16.0477   -4.3012  -23.6240 C.2         1 MOL       0.0619
     26 OXT        16.9498   -5.0000  -24.3534 O.co2       1 MOL      -0.5665
     27 O          16.5224   -3.2864  -22.8369 O.co2       1 MOL      -0.5665
     28 CB         13.6429   -4.1181  -24.5459 C.3         1 MOL       0.0108
     29 CG         13.9953   -4.2023  -25.9829 C.ar        1 MOL      -0.0499
     30 CD1        13.1750   -4.9028  -26.8991 C.ar        1 MOL      -0.0686
     31 CE1        13.4560   -4.8740  -28.2795 C.ar        1 MOL      -0.0398
     32 CZ         14.5679   -4.1567  -28.7574 C.ar        1 MOL       0.0805
     33 OH         14.8522   -4.1313  -30.0852 O.3         1 MOL      -0.3376
     34 CE2        15.3947   -3.4609  -27.8570 C.ar        1 MOL      -0.0398
     35 CD2        15.1018   -3.4721  -26.4825 C.ar        1 MOL      -0.0686
     36 CBF        12.6614   -2.9203  -19.7069 C.3         1 MOL       0.0375
     37 CBV        13.9603   -3.7778  -19.9418 C.3         1 MOL       0.0788
     38 CBN        14.4579   -3.6895  -21.3203 C.2         1 MOL       0.1848
     39 OAC        15.2798   -2.8313  -21.6358 O.2         1 MOL      -0.3964
     40 CBC        15.1394   -3.5630  -18.9358 C.3         1 MOL       0.0422
     41 CBS        15.7038   -2.2181  -18.6769 C.2         1 MOL       0.1411
     42 CBA        15.4017   -0.9569  -19.1883 C.2         1 MOL      -0.0269
     43 OBK        16.6356   -2.0341  -17.7148 O.3         1 MOL      -0.1670
     44 NBG        16.9001   -0.7592  -17.5920 N.2         1 MOL      -0.1519
     45 CBU        16.1608   -0.0401  -18.4568 C.2         1 MOL       0.0430
     46 CBT        16.1451    1.3825  -18.4985 C.ar        1 MOL      -0.0150
     47 CAU        15.0896    2.1003  -19.1156 C.ar        1 MOL      -0.0551
     48 CAO        15.0577    3.5101  -19.0853 C.ar        1 MOL      -0.0621
     49 CAJ        16.0750    4.2245  -18.4313 C.ar        1 MOL      -0.0626
     50 CAP        17.1240    3.5293  -17.8092 C.ar        1 MOL      -0.0621
     51 CAV        17.1618    2.1230  -17.8484 C.ar        1 MOL      -0.0551
     52 H1         14.2399   -2.6660  -11.1148 H           1 MOL       0.0557
     53 H2         14.1866   -0.8152   -9.5650 H           1 MOL       0.0599
     54 H3         15.1355    1.3309  -10.1901 H           1 MOL       0.0559
     55 H4         16.1340    1.6208  -12.3843 H           1 MOL       0.0599
     56 H5         16.1982   -0.2175  -13.9440 H           1 MOL       0.0557
     57 H6         14.8717   -3.6630  -13.2424 H           1 MOL       0.0776
     58 H7         16.3901   -2.9811  -13.7929 H           1 MOL       0.0776
     59 H8         13.7557   -1.8444  -17.0467 H           1 MOL       0.1888
     60 H9         11.0812   -2.7925  -16.2743 H           1 MOL       0.0787
     61 H10        11.4112   -0.5076  -18.2266 H           1 MOL       0.0465
     62 H11        11.9347   -0.1651  -16.5988 H           1 MOL       0.0465
     63 H12         9.5784    1.1631  -18.0057 H           1 MOL       0.0557
     64 H13         7.4742    1.8363  -17.0481 H           1 MOL       0.0599
     65 H14         6.5239    0.6010  -15.1849 H           1 MOL       0.0559
     66 H15         7.7255   -1.2839  -14.2460 H           1 MOL       0.0599
     67 H16         9.8797   -1.9168  -15.1331 H           1 MOL       0.0557
     68 H17        13.4806   -5.2971  -21.9173 H           1 MOL       0.1876
     69 H18        14.6494   -5.8409  -23.7446 H           1 MOL       0.0747
     70 H19        13.5058   -3.0691  -24.2949 H           1 MOL       0.0446
     71 H20        12.6632   -4.5900  -24.3901 H           1 MOL       0.0446
     72 H21        12.3592   -5.4209  -26.5759 H           1 MOL       0.0530
     73 H22        12.8463   -5.3679  -28.9374 H           1 MOL       0.0525
     74 H23        14.1999   -3.5015  -30.4629 H           1 MOL       0.2458
     75 H24        16.2006   -2.9260  -28.2018 H           1 MOL       0.0525
     76 H25        15.6844   -2.9203  -25.8513 H           1 MOL       0.0530
     77 H26        12.9112   -1.8610  -19.6690 H           1 MOL       0.0495
     78 H27        12.0302   -3.0637  -20.5857 H           1 MOL       0.0495
     79 H28        13.6603   -4.8165  -19.8015 H           1 MOL       0.0581
     80 H29        15.9720   -4.2067  -19.2199 H           1 MOL       0.0513
     81 H30        14.7935   -3.9323  -17.9685 H           1 MOL       0.0513
     82 H31        14.7200   -0.7492  -19.9232 H           1 MOL       0.0289
     83 H32        14.3157    1.6106  -19.5722 H           1 MOL       0.0616
     84 H33        14.2841    4.0146  -19.5267 H           1 MOL       0.0615
     85 H34        16.0517    5.2413  -18.3965 H           1 MOL       0.0610
     86 H35        17.8587    4.0410  -17.3154 H           1 MOL       0.0615
     87 H36        17.9414    1.6438  -17.3855 H           1 MOL       0.0616
@<TRIPOS>BOND
     1     1     2  ar
     2     6     1  ar
     3     2     3  ar
     4     4     3  ar
     5     5     4  ar
     6     6     5  ar
     7     7     6   1
     8     8     7   1
     9     9     8   1
    10     9    10   2
    11    11     9  am
    12    12    11   1
    13    12    13   1
    14    20    12   1
    15    13    14   1
    16    14    15  ar
    17    14    19  ar
    18    15    16  ar
    19    16    17  ar
    20    18    17  ar
    21    19    18  ar
    22    20    21  ar
    23    20    22  ar
    24    36    20   1
    25    23    24   1
    26    38    23  am
    27    24    25   1
    28    24    28   1
    29    25    26  ar
    30    25    27  ar
    31    28    29   1
    32    29    30  ar
    33    29    35  ar
    34    30    31  ar
    35    31    32  ar
    36    32    33   1
    37    34    32  ar
    38    35    34  ar
    39    37    36   1
    40    37    38   1
    41    37    40   1
    42    38    39   2
    43    40    41   1
    44    41    42   2
    45    41    43   1
    46    42    45   1
    47    43    44   1
    48    44    45   2
    49    45    46   1
    50    46    47  ar
    51    46    51  ar
    52    47    48  ar
    53    48    49  ar
    54    49    50  ar
    55    50    51  ar
    56     1    52   1
    57     2    53   1
    58     3    54   1
    59     4    55   1
    60     5    56   1
    61     7    57   1
    62     7    58   1
    63    11    59   1
    64    12    60   1
    65    13    61   1
    66    13    62   1
    67    15    63   1
    68    16    64   1
    69    17    65   1
    70    18    66   1
    71    19    67   1
    72    23    68   1
    73    24    69   1
    74    28    70   1
    75    28    71   1
    76    30    72   1
    77    31    73   1
    78    33    74   1
    79    34    75   1
    80    35    76   1
    81    36    77   1
    82    36    78   1
    83    37    79   1
    84    40    80   1
    85    40    81   1
    86    42    82   1
    87    47    83   1
    88    48    84   1
    89    49    85   1
    90    50    86   1
    91    51    87   1
@<TRIPOS>SUBSTRUCTURE
     1  MOL      1

