@<TRIPOS>MOLECULE
2xy9_ligand_039
    87    91
SMALL
GAST_HUCK
****
This file was generated by PARSER (from files_GN.cpp)

@<TRIPOS>ATOM
      1 CAQ        16.9757    3.4467  -16.9395 C.ar        1 MOL      -0.0578
      2 CAK        16.6584    4.8082  -17.1125 C.ar        1 MOL      -0.0685
      3 CAH        16.0159    5.2387  -18.2867 C.ar        1 MOL      -0.0687
      4 CAL        15.7011    4.3089  -19.2918 C.ar        1 MOL      -0.0685
      5 CAR        16.0154    2.9489  -19.1159 C.ar        1 MOL      -0.0578
      6 CBP        16.6449    2.4926  -17.9316 C.ar        1 MOL      -0.0130
      7 CBB        16.9318    1.0573  -17.6750 C.3         1 MOL       0.1113
      8 OBJ        16.4557    0.1912  -18.7124 O.3         1 MOL      -0.2506
      9 CBM        16.4029   -1.1649  -18.7023 C.2         1 MOL       0.3232
     10 OAB        16.7974   -1.8667  -17.6158 O.2         1 MOL      -0.3774
     11 NBI        15.8524   -1.7528  -19.7847 N.am        1 MOL      -0.2418
     12 CBX        15.4585   -3.1302  -19.9217 C.3         1 MOL       0.1176
     13 CBE        14.4157   -3.5494  -18.8202 C.3         1 MOL       0.0205
     14 CBQ        13.3334   -2.6098  -18.3877 C.ar        1 MOL      -0.0393
     15 CAS        12.6659   -2.8584  -17.1606 C.ar        1 MOL      -0.0602
     16 CAM        11.6692   -1.9862  -16.6822 C.ar        1 MOL      -0.0686
     17 CAI        11.3157   -0.8489  -17.4278 C.ar        1 MOL      -0.0687
     18 CAN        11.9539   -0.5929  -18.6523 C.ar        1 MOL      -0.0686
     19 CAT        12.9390   -1.4728  -19.1333 C.ar        1 MOL      -0.0602
     20 PBY        14.9909   -3.4337  -21.5147 P.3         1 MOL       0.0154
     21 OAG        14.6030   -2.2028  -22.1578 O.co2       1 MOL      -0.6174
     22 OAD        13.7600   -4.1817  -21.5706 O.co2       1 MOL      -0.6174
     23 N          14.0388   -4.9598  -24.3070 N.am        1 MOL      -0.2694
     24 CA         13.1051   -4.9215  -25.3987 C.3         1 MOL       0.1024
     25 C          12.0662   -5.9814  -25.4427 C.2         1 MOL       0.0619
     26 OXT        10.9139   -5.7357  -26.1107 O.co2       1 MOL      -0.5665
     27 O          12.0994   -7.0860  -24.6614 O.co2       1 MOL      -0.5665
     28 CB         13.8502   -4.7627  -26.7637 C.3         1 MOL       0.0108
     29 CG         14.8302   -3.6407  -26.9429 C.ar        1 MOL      -0.0499
     30 CD1        15.0372   -2.6120  -25.9906 C.ar        1 MOL      -0.0686
     31 CE1        15.9743   -1.5838  -26.2029 C.ar        1 MOL      -0.0398
     32 CZ         16.7317   -1.5534  -27.3864 C.ar        1 MOL       0.0805
     33 OH         17.6504   -0.5771  -27.5859 O.3         1 MOL      -0.3376
     34 CE2        16.5270   -2.5483  -28.3599 C.ar        1 MOL      -0.0398
     35 CD2        15.5797   -3.5702  -28.1449 C.ar        1 MOL      -0.0686
     36 CBF        16.1516   -4.1434  -22.5069 C.3         1 MOL       0.0375
     37 CBV        15.9332   -5.6581  -22.8997 C.3         1 MOL       0.0788
     38 CBN        14.8369   -5.9226  -23.8606 C.2         1 MOL       0.1848
     39 OAC        14.6604   -7.0715  -24.2475 O.2         1 MOL      -0.3964
     40 CBC        17.2867   -6.3472  -23.3368 C.3         1 MOL       0.0422
     41 CBS        17.5266   -6.5688  -24.7825 C.2         1 MOL       0.1411
     42 CBA        18.1245   -5.7560  -25.7365 C.2         1 MOL      -0.0269
     43 OBK        17.1784   -7.7176  -25.4031 O.3         1 MOL      -0.1670
     44 NBG        17.5287   -7.6584  -26.6557 N.2         1 MOL      -0.1519
     45 CBU        18.1290   -6.4835  -26.9269 C.2         1 MOL       0.0430
     46 CBT        18.6586   -6.1503  -28.2052 C.ar        1 MOL      -0.0150
     47 CAU        19.5109   -5.0355  -28.4003 C.ar        1 MOL      -0.0551
     48 CAO        20.0431   -4.7432  -29.6716 C.ar        1 MOL      -0.0621
     49 CAJ        19.7333   -5.5615  -30.7720 C.ar        1 MOL      -0.0626
     50 CAP        18.8934   -6.6742  -30.5996 C.ar        1 MOL      -0.0621
     51 CAV        18.3637   -6.9641  -29.3294 C.ar        1 MOL      -0.0551
     52 H1         17.4334    3.1539  -16.0720 H           1 MOL       0.0557
     53 H2         16.8835    5.4834  -16.3780 H           1 MOL       0.0599
     54 H3         15.7787    6.2254  -18.4086 H           1 MOL       0.0559
     55 H4         15.2337    4.6198  -20.1471 H           1 MOL       0.0599
     56 H5         15.7662    2.2949  -19.8589 H           1 MOL       0.0557
     57 H6         16.4450    0.7716  -16.7392 H           1 MOL       0.0776
     58 H7         18.0085    0.9166  -17.5668 H           1 MOL       0.0776
     59 H8         15.6126   -1.1504  -20.5045 H           1 MOL       0.1888
     60 H9         16.3492   -3.7484  -19.7545 H           1 MOL       0.0787
     61 H10        15.0097   -3.7664  -17.9287 H           1 MOL       0.0465
     62 H11        13.9484   -4.5001  -19.0857 H           1 MOL       0.0465
     63 H12        12.9149   -3.6730  -16.5910 H           1 MOL       0.0557
     64 H13        11.2047   -2.1772  -15.7909 H           1 MOL       0.0599
     65 H14        10.5914   -0.2134  -17.0851 H           1 MOL       0.0559
     66 H15        11.6924    0.2284  -19.2011 H           1 MOL       0.0599
     67 H16        13.3660   -1.2602  -20.0307 H           1 MOL       0.0557
     68 H17        14.1710   -4.1034  -23.8879 H           1 MOL       0.1876
     69 H18        12.5448   -3.9988  -25.2505 H           1 MOL       0.0747
     70 H19        13.0942   -4.6376  -27.5450 H           1 MOL       0.0446
     71 H20        14.3715   -5.7036  -26.9628 H           1 MOL       0.0446
     72 H21        14.5020   -2.5870  -25.1257 H           1 MOL       0.0530
     73 H22        16.1049   -0.8606  -25.4899 H           1 MOL       0.0525
     74 H23        18.4509   -0.9127  -27.1256 H           1 MOL       0.2458
     75 H24        17.0726   -2.5354  -29.2229 H           1 MOL       0.0525
     76 H25        15.4512   -4.2766  -28.8749 H           1 MOL       0.0530
     77 H26        17.0984   -4.0333  -21.9782 H           1 MOL       0.0495
     78 H27        16.2534   -3.5576  -23.4263 H           1 MOL       0.0495
     79 H28        15.6344   -6.1583  -21.9703 H           1 MOL       0.0581
     80 H29        17.2971   -7.3422  -22.8830 H           1 MOL       0.0513
     81 H30        18.1584   -5.8301  -22.9310 H           1 MOL       0.0513
     82 H31        18.4969   -4.8194  -25.5783 H           1 MOL       0.0289
     83 H32        19.7705   -4.4329  -27.6166 H           1 MOL       0.0616
     84 H33        20.6642   -3.9406  -29.7959 H           1 MOL       0.0615
     85 H34        20.1203   -5.3530  -31.6951 H           1 MOL       0.0610
     86 H35        18.6681   -7.2742  -31.3964 H           1 MOL       0.0615
     87 H36        17.7556   -7.7816  -29.2397 H           1 MOL       0.0616
@<TRIPOS>BOND
     1     1     2  ar
     2     6     1  ar
     3     2     3  ar
     4     4     3  ar
     5     5     4  ar
     6     6     5  ar
     7     7     6   1
     8     8     7   1
     9     9     8   1
    10     9    10   2
    11    11     9  am
    12    12    11   1
    13    12    13   1
    14    20    12   1
    15    13    14   1
    16    14    15  ar
    17    14    19  ar
    18    15    16  ar
    19    16    17  ar
    20    18    17  ar
    21    19    18  ar
    22    20    21  ar
    23    20    22  ar
    24    36    20   1
    25    23    24   1
    26    38    23  am
    27    24    25   1
    28    24    28   1
    29    25    26  ar
    30    25    27  ar
    31    28    29   1
    32    29    30  ar
    33    29    35  ar
    34    30    31  ar
    35    31    32  ar
    36    32    33   1
    37    34    32  ar
    38    35    34  ar
    39    37    36   1
    40    37    38   1
    41    37    40   1
    42    38    39   2
    43    40    41   1
    44    41    42   2
    45    41    43   1
    46    42    45   1
    47    43    44   1
    48    44    45   2
    49    45    46   1
    50    46    47  ar
    51    46    51  ar
    52    47    48  ar
    53    48    49  ar
    54    49    50  ar
    55    50    51  ar
    56     1    52   1
    57     2    53   1
    58     3    54   1
    59     4    55   1
    60     5    56   1
    61     7    57   1
    62     7    58   1
    63    11    59   1
    64    12    60   1
    65    13    61   1
    66    13    62   1
    67    15    63   1
    68    16    64   1
    69    17    65   1
    70    18    66   1
    71    19    67   1
    72    23    68   1
    73    24    69   1
    74    28    70   1
    75    28    71   1
    76    30    72   1
    77    31    73   1
    78    33    74   1
    79    34    75   1
    80    35    76   1
    81    36    77   1
    82    36    78   1
    83    37    79   1
    84    40    80   1
    85    40    81   1
    86    42    82   1
    87    47    83   1
    88    48    84   1
    89    49    85   1
    90    50    86   1
    91    51    87   1
@<TRIPOS>SUBSTRUCTURE
     1  MOL      1

