@<TRIPOS>MOLECULE
2xy9_ligand_082
    87    91
SMALL
GAST_HUCK
****
This file was generated by PARSER (from files_GN.cpp)

@<TRIPOS>ATOM
      1 CAQ        12.4606  -11.2360  -27.3327 C.ar        1 MOL      -0.0578
      2 CAK        13.1430  -12.2233  -28.0673 C.ar        1 MOL      -0.0685
      3 CAH        13.4107  -13.4731  -27.4866 C.ar        1 MOL      -0.0687
      4 CAL        12.9999  -13.7350  -26.1684 C.ar        1 MOL      -0.0685
      5 CAR        12.3369  -12.7415  -25.4229 C.ar        1 MOL      -0.0578
      6 CBP        12.0566  -11.4784  -25.9975 C.ar        1 MOL      -0.0130
      7 CBB        11.3934  -10.4161  -25.1965 C.3         1 MOL       0.1113
      8 OBJ        12.2244   -9.9139  -24.1419 O.3         1 MOL      -0.2506
      9 CBM        13.4501   -9.3404  -24.2638 C.2         1 MOL       0.3232
     10 OAB        14.0316   -9.2524  -25.4824 O.2         1 MOL      -0.3774
     11 NBI        14.0576   -8.9159  -23.1339 N.am        1 MOL      -0.2418
     12 CBX        15.4253   -8.5104  -22.9421 C.3         1 MOL       0.1176
     13 CBE        16.3555   -9.7543  -22.7332 C.3         1 MOL       0.0205
     14 CBQ        16.2193  -10.9157  -23.6591 C.ar        1 MOL      -0.0393
     15 CAS        15.7376  -12.1603  -23.1843 C.ar        1 MOL      -0.0602
     16 CAM        15.7201  -13.2931  -24.0152 C.ar        1 MOL      -0.0686
     17 CAI        16.1778  -13.1974  -25.3416 C.ar        1 MOL      -0.0687
     18 CAN        16.6353  -11.9655  -25.8392 C.ar        1 MOL      -0.0686
     19 CAT        16.6588  -10.8358  -25.0006 C.ar        1 MOL      -0.0602
     20 PBY        16.0163   -7.2499  -23.8888 P.3         1 MOL       0.0154
     21 OAG        16.0976   -7.5936  -25.2993 O.co2       1 MOL      -0.6174
     22 OAD        17.4017   -7.0329  -23.5305 O.co2       1 MOL      -0.6174
     23 N          16.0416   -3.6475  -26.0381 N.am        1 MOL      -0.2694
     24 CA         16.6520   -3.2292  -27.2767 C.3         1 MOL       0.1024
     25 C          15.7015   -2.4023  -28.0598 C.2         1 MOL       0.0619
     26 OXT        15.5184   -1.1036  -27.7310 O.co2       1 MOL      -0.5665
     27 O          14.8024   -2.9579  -28.9081 O.co2       1 MOL      -0.5665
     28 CB         17.3077   -4.3689  -28.1260 C.3         1 MOL       0.0108
     29 CG         16.4694   -5.4858  -28.6639 C.ar        1 MOL      -0.0499
     30 CD1        15.3518   -6.0146  -27.9743 C.ar        1 MOL      -0.0686
     31 CE1        14.6385   -7.1165  -28.4719 C.ar        1 MOL      -0.0398
     32 CZ         15.0436   -7.7291  -29.6705 C.ar        1 MOL       0.0805
     33 OH         14.3750   -8.7982  -30.1610 O.3         1 MOL      -0.3376
     34 CE2        16.1577   -7.2320  -30.3674 C.ar        1 MOL      -0.0398
     35 CD2        16.8681   -6.1279  -29.8631 C.ar        1 MOL      -0.0686
     36 CBF        15.1716   -5.8124  -23.7326 C.3         1 MOL       0.0375
     37 CBV        15.9819   -4.4704  -23.7303 C.3         1 MOL       0.0788
     38 CBN        16.6610   -4.2005  -25.0006 C.2         1 MOL       0.1848
     39 OAC        17.8605   -4.4544  -25.0728 O.2         1 MOL      -0.3964
     40 CBC        15.0873   -3.2668  -23.2746 C.3         1 MOL       0.0422
     41 CBS        14.9743   -3.1683  -21.8060 C.2         1 MOL       0.1411
     42 CBA        13.9145   -3.5152  -20.9808 C.2         1 MOL      -0.0269
     43 OBK        15.9536   -2.6818  -21.0154 O.3         1 MOL      -0.1670
     44 NBG        15.5624   -2.7256  -19.7719 N.2         1 MOL      -0.1519
     45 CBU        14.3124   -3.2222  -19.6767 C.2         1 MOL       0.0430
     46 CBT        13.5938   -3.3720  -18.4535 C.ar        1 MOL      -0.0150
     47 CAU        12.2695   -3.8835  -18.4182 C.ar        1 MOL      -0.0551
     48 CAO        11.5697   -4.0055  -17.2016 C.ar        1 MOL      -0.0621
     49 CAJ        12.1781   -3.6250  -15.9955 C.ar        1 MOL      -0.0626
     50 CAP        13.4871   -3.1164  -16.0030 C.ar        1 MOL      -0.0621
     51 CAV        14.1860   -2.9919  -17.2214 C.ar        1 MOL      -0.0551
     52 H1         12.2855  -10.3269  -27.7698 H           1 MOL       0.0557
     53 H2         13.4573  -12.0241  -29.0185 H           1 MOL       0.0599
     54 H3         13.9159  -14.1835  -28.0188 H           1 MOL       0.0559
     55 H4         13.2088  -14.6381  -25.7383 H           1 MOL       0.0599
     56 H5         12.0639  -12.9420  -24.4569 H           1 MOL       0.0557
     57 H6         10.4861  -10.8211  -24.7460 H           1 MOL       0.0776
     58 H7         11.0945   -9.5713  -25.8236 H           1 MOL       0.0776
     59 H8         13.5290   -9.0073  -22.3246 H           1 MOL       0.1888
     60 H9         15.3941   -8.0457  -21.9497 H           1 MOL       0.0787
     61 H10        16.1845  -10.1108  -21.7138 H           1 MOL       0.0465
     62 H11        17.4036   -9.4544  -22.7449 H           1 MOL       0.0465
     63 H12        15.4173  -12.2604  -22.2171 H           1 MOL       0.0557
     64 H13        15.3846  -14.1896  -23.6519 H           1 MOL       0.0599
     65 H14        16.1726  -14.0238  -25.9454 H           1 MOL       0.0559
     66 H15        16.9688  -11.8955  -26.8055 H           1 MOL       0.0599
     67 H16        17.0242   -9.9606  -25.3722 H           1 MOL       0.0557
     68 H17        15.0894   -3.4698  -25.9367 H           1 MOL       0.1876
     69 H18        17.4677   -2.5428  -27.0104 H           1 MOL       0.0747
     70 H19        18.0855   -4.8453  -27.5217 H           1 MOL       0.0446
     71 H20        17.8297   -3.8762  -28.9554 H           1 MOL       0.0446
     72 H21        15.0346   -5.6180  -27.0932 H           1 MOL       0.0530
     73 H22        13.8331   -7.4721  -27.9552 H           1 MOL       0.0525
     74 H23        13.7146   -9.0488  -29.4811 H           1 MOL       0.2458
     75 H24        16.4631   -7.6749  -31.2368 H           1 MOL       0.0525
     76 H25        17.6937   -5.7992  -30.3727 H           1 MOL       0.0530
     77 H26        14.6360   -5.8792  -22.7853 H           1 MOL       0.0495
     78 H27        14.4144   -5.7710  -24.5195 H           1 MOL       0.0495
     79 H28        16.7712   -4.5768  -22.9738 H           1 MOL       0.0581
     80 H29        14.0915   -3.3509  -23.7167 H           1 MOL       0.0513
     81 H30        15.5064   -2.3169  -23.6233 H           1 MOL       0.0513
     82 H31        13.0271   -3.9127  -21.2873 H           1 MOL       0.0289
     83 H32        11.7950   -4.1693  -19.2752 H           1 MOL       0.0616
     84 H33        10.6156   -4.3733  -17.1957 H           1 MOL       0.0615
     85 H34        11.6721   -3.7207  -15.1118 H           1 MOL       0.0610
     86 H35        13.9345   -2.8430  -15.1263 H           1 MOL       0.0615
     87 H36        15.1382   -2.6201  -17.1886 H           1 MOL       0.0616
@<TRIPOS>BOND
     1     1     2  ar
     2     6     1  ar
     3     2     3  ar
     4     4     3  ar
     5     5     4  ar
     6     6     5  ar
     7     7     6   1
     8     8     7   1
     9     9     8   1
    10     9    10   2
    11    11     9  am
    12    12    11   1
    13    12    13   1
    14    20    12   1
    15    13    14   1
    16    14    15  ar
    17    14    19  ar
    18    15    16  ar
    19    16    17  ar
    20    18    17  ar
    21    19    18  ar
    22    20    21  ar
    23    20    22  ar
    24    36    20   1
    25    23    24   1
    26    38    23  am
    27    24    25   1
    28    24    28   1
    29    25    26  ar
    30    25    27  ar
    31    28    29   1
    32    29    30  ar
    33    29    35  ar
    34    30    31  ar
    35    31    32  ar
    36    32    33   1
    37    34    32  ar
    38    35    34  ar
    39    37    36   1
    40    37    38   1
    41    37    40   1
    42    38    39   2
    43    40    41   1
    44    41    42   2
    45    41    43   1
    46    42    45   1
    47    43    44   1
    48    44    45   2
    49    45    46   1
    50    46    47  ar
    51    46    51  ar
    52    47    48  ar
    53    48    49  ar
    54    49    50  ar
    55    50    51  ar
    56     1    52   1
    57     2    53   1
    58     3    54   1
    59     4    55   1
    60     5    56   1
    61     7    57   1
    62     7    58   1
    63    11    59   1
    64    12    60   1
    65    13    61   1
    66    13    62   1
    67    15    63   1
    68    16    64   1
    69    17    65   1
    70    18    66   1
    71    19    67   1
    72    23    68   1
    73    24    69   1
    74    28    70   1
    75    28    71   1
    76    30    72   1
    77    31    73   1
    78    33    74   1
    79    34    75   1
    80    35    76   1
    81    36    77   1
    82    36    78   1
    83    37    79   1
    84    40    80   1
    85    40    81   1
    86    42    82   1
    87    47    83   1
    88    48    84   1
    89    49    85   1
    90    50    86   1
    91    51    87   1
@<TRIPOS>SUBSTRUCTURE
     1  MOL      1

