@<TRIPOS>MOLECULE
2xy9_ligand_001
    87    91
SMALL
GAST_HUCK
****
This file was generated by PARSER (from files_GN.cpp)

@<TRIPOS>ATOM
      1 CAQ        16.9796   -8.8895  -31.2056 C.ar        1 MOL      -0.0578
      2 CAK        17.0009   -7.6009  -31.7687 C.ar        1 MOL      -0.0685
      3 CAH        16.0955   -6.6232  -31.3207 C.ar        1 MOL      -0.0687
      4 CAL        15.1595   -6.9383  -30.3202 C.ar        1 MOL      -0.0685
      5 CAR        15.1408   -8.2270  -29.7539 C.ar        1 MOL      -0.0578
      6 CBP        16.0606   -9.2196  -30.1799 C.ar        1 MOL      -0.0130
      7 CBB        16.0636  -10.5991  -29.6222 C.3         1 MOL       0.1113
      8 OBJ        15.2647  -10.7177  -28.4348 O.3         1 MOL      -0.2506
      9 CBM        15.6722  -11.0412  -27.1808 C.2         1 MOL       0.3232
     10 OAB        16.9705  -11.3298  -26.9220 O.2         1 MOL      -0.3774
     11 NBI        14.7637  -10.9080  -26.1867 N.am        1 MOL      -0.2418
     12 CBX        15.0244  -10.9559  -24.7700 C.3         1 MOL       0.1176
     13 CBE        15.4286  -12.4136  -24.3249 C.3         1 MOL       0.0205
     14 CBQ        16.1333  -12.6065  -23.0221 C.ar        1 MOL      -0.0393
     15 CAS        15.7342  -11.9091  -21.8573 C.ar        1 MOL      -0.0602
     16 CAM        16.4405  -12.0593  -20.6471 C.ar        1 MOL      -0.0686
     17 CAI        17.5367  -12.9363  -20.5746 C.ar        1 MOL      -0.0687
     18 CAN        17.9042  -13.6914  -21.7003 C.ar        1 MOL      -0.0686
     19 CAT        17.2022  -13.5319  -22.9090 C.ar        1 MOL      -0.0602
     20 PBY        15.9539   -9.6295  -24.2836 P.3         1 MOL       0.0154
     21 OAG        16.4766   -8.8432  -25.3885 O.co2       1 MOL      -0.6174
     22 OAD        17.1536  -10.0837  -23.6133 O.co2       1 MOL      -0.6174
     23 N          13.8155   -6.0129  -23.9702 N.am        1 MOL      -0.2694
     24 CA         12.9637   -5.2393  -24.8440 C.3         1 MOL       0.1024
     25 C          12.2148   -6.1166  -25.7718 C.2         1 MOL       0.0619
     26 OXT        11.0330   -5.7114  -26.3033 O.co2       1 MOL      -0.5665
     27 O          12.5973   -7.3914  -26.0267 O.co2       1 MOL      -0.5665
     28 CB         13.4995   -3.9115  -25.4795 C.3         1 MOL       0.0108
     29 CG         14.6729   -3.8997  -26.4035 C.ar        1 MOL      -0.0499
     30 CD1        14.9593   -4.9616  -27.2976 C.ar        1 MOL      -0.0686
     31 CE1        16.1597   -4.9914  -28.0281 C.ar        1 MOL      -0.0398
     32 CZ         17.0674   -3.9231  -27.9463 C.ar        1 MOL       0.0805
     33 OH         18.2292   -4.0046  -28.6486 O.3         1 MOL      -0.3376
     34 CE2        16.7478   -2.8016  -27.1566 C.ar        1 MOL      -0.0398
     35 CD2        15.5666   -2.8022  -26.3885 C.ar        1 MOL      -0.0686
     36 CBF        15.1896   -8.6322  -23.1777 C.3         1 MOL       0.0375
     37 CBV        15.7222   -7.1642  -23.0154 C.3         1 MOL       0.0788
     38 CBN        15.1196   -6.2674  -23.9997 C.2         1 MOL       0.1848
     39 OAC        15.8850   -5.6612  -24.7506 O.2         1 MOL      -0.3964
     40 CBC        15.5566   -6.6629  -21.5389 C.3         1 MOL       0.0422
     41 CBS        15.4637   -5.2012  -21.3208 C.2         1 MOL       0.1411
     42 CBA        14.5140   -4.5713  -20.5317 C.2         1 MOL      -0.0269
     43 OBK        16.2515   -4.2320  -21.8447 O.3         1 MOL      -0.1670
     44 NBG        15.8501   -3.0668  -21.3996 N.2         1 MOL      -0.1519
     45 CBU        14.7785   -3.2056  -20.5880 C.2         1 MOL       0.0430
     46 CBT        14.0830   -2.1579  -19.9287 C.ar        1 MOL      -0.0150
     47 CAU        12.9509   -2.4089  -19.1082 C.ar        1 MOL      -0.0551
     48 CAO        12.2861   -1.3639  -18.4454 C.ar        1 MOL      -0.0621
     49 CAJ        12.7354   -0.0421  -18.5911 C.ar        1 MOL      -0.0626
     50 CAP        13.8459    0.2343  -19.4089 C.ar        1 MOL      -0.0621
     51 CAV        14.5107   -0.8143  -20.0710 C.ar        1 MOL      -0.0551
     52 H1         17.6463   -9.5878  -31.5461 H           1 MOL       0.0557
     53 H2         17.6807   -7.3746  -32.4962 H           1 MOL       0.0599
     54 H3         16.1193   -5.6843  -31.7231 H           1 MOL       0.0559
     55 H4         14.4815   -6.2378  -30.0178 H           1 MOL       0.0599
     56 H5         14.4436   -8.4372  -29.0360 H           1 MOL       0.0557
     57 H6         17.0946  -10.8961  -29.4133 H           1 MOL       0.0776
     58 H7         15.6630  -11.2771  -30.3782 H           1 MOL       0.0776
     59 H8         13.8575  -10.6820  -26.4579 H           1 MOL       0.1888
     60 H9         14.0412  -10.7863  -24.3276 H           1 MOL       0.0787
     61 H10        16.0336  -12.8608  -25.1172 H           1 MOL       0.0465
     62 H11        14.5148  -13.0149  -24.2840 H           1 MOL       0.0465
     63 H12        14.9299  -11.2790  -21.8848 H           1 MOL       0.0557
     64 H13        16.1555  -11.5346  -19.8194 H           1 MOL       0.0599
     65 H14        18.0561  -13.0429  -19.7035 H           1 MOL       0.0559
     66 H15        18.6810  -14.3533  -21.6364 H           1 MOL       0.0599
     67 H16        17.4840  -14.0959  -23.7133 H           1 MOL       0.0557
     68 H17        13.3352   -6.4688  -23.2581 H           1 MOL       0.1876
     69 H18        12.1875   -4.8993  -24.1513 H           1 MOL       0.0747
     70 H19        13.7330   -3.2631  -24.6290 H           1 MOL       0.0446
     71 H20        12.6740   -3.4238  -26.0118 H           1 MOL       0.0446
     72 H21        14.3363   -5.7657  -27.3705 H           1 MOL       0.0530
     73 H22        16.3931   -5.8114  -28.5934 H           1 MOL       0.0525
     74 H23        18.7063   -3.1672  -28.4948 H           1 MOL       0.2458
     75 H24        17.3899   -2.0052  -27.1150 H           1 MOL       0.0525
     76 H25        15.3882   -1.9881  -25.7915 H           1 MOL       0.0530
     77 H26        15.2641   -9.1455  -22.2128 H           1 MOL       0.0495
     78 H27        14.1214   -8.6018  -23.4302 H           1 MOL       0.0495
     79 H28        16.8088   -7.1971  -23.1875 H           1 MOL       0.0581
     80 H29        16.4129   -7.0109  -20.9613 H           1 MOL       0.0513
     81 H30        14.6696   -7.1308  -21.0969 H           1 MOL       0.0513
     82 H31        13.7757   -5.0434  -20.0097 H           1 MOL       0.0289
     83 H32        12.5932   -3.3544  -18.9749 H           1 MOL       0.0616
     84 H33        11.4712   -1.5642  -17.8586 H           1 MOL       0.0615
     85 H34        12.2520    0.7196  -18.1060 H           1 MOL       0.0610
     86 H35        14.1657    1.1991  -19.5242 H           1 MOL       0.0615
     87 H36        15.3182   -0.5842  -20.6535 H           1 MOL       0.0616
@<TRIPOS>BOND
     1     1     2  ar
     2     6     1  ar
     3     2     3  ar
     4     4     3  ar
     5     5     4  ar
     6     6     5  ar
     7     7     6   1
     8     8     7   1
     9     9     8   1
    10     9    10   2
    11    11     9  am
    12    12    11   1
    13    12    13   1
    14    20    12   1
    15    13    14   1
    16    14    15  ar
    17    14    19  ar
    18    15    16  ar
    19    16    17  ar
    20    18    17  ar
    21    19    18  ar
    22    20    21  ar
    23    20    22  ar
    24    36    20   1
    25    23    24   1
    26    38    23  am
    27    24    25   1
    28    24    28   1
    29    25    26  ar
    30    25    27  ar
    31    28    29   1
    32    29    30  ar
    33    29    35  ar
    34    30    31  ar
    35    31    32  ar
    36    32    33   1
    37    34    32  ar
    38    35    34  ar
    39    37    36   1
    40    37    38   1
    41    37    40   1
    42    38    39   2
    43    40    41   1
    44    41    42   2
    45    41    43   1
    46    42    45   1
    47    43    44   1
    48    44    45   2
    49    45    46   1
    50    46    47  ar
    51    46    51  ar
    52    47    48  ar
    53    48    49  ar
    54    49    50  ar
    55    50    51  ar
    56     1    52   1
    57     2    53   1
    58     3    54   1
    59     4    55   1
    60     5    56   1
    61     7    57   1
    62     7    58   1
    63    11    59   1
    64    12    60   1
    65    13    61   1
    66    13    62   1
    67    15    63   1
    68    16    64   1
    69    17    65   1
    70    18    66   1
    71    19    67   1
    72    23    68   1
    73    24    69   1
    74    28    70   1
    75    28    71   1
    76    30    72   1
    77    31    73   1
    78    33    74   1
    79    34    75   1
    80    35    76   1
    81    36    77   1
    82    36    78   1
    83    37    79   1
    84    40    80   1
    85    40    81   1
    86    42    82   1
    87    47    83   1
    88    48    84   1
    89    49    85   1
    90    50    86   1
    91    51    87   1
@<TRIPOS>SUBSTRUCTURE
     1  MOL      1

