@<TRIPOS>MOLECULE
2xy9_ligand_085
    87    91
SMALL
GAST_HUCK
****
This file was generated by PARSER (from files_GN.cpp)

@<TRIPOS>ATOM
      1 CAQ        13.6937   -3.3735  -26.0357 C.ar        1 MOL      -0.0578
      2 CAK        14.5111   -2.6516  -26.9355 C.ar        1 MOL      -0.0685
      3 CAH        14.4784   -2.9375  -28.3103 C.ar        1 MOL      -0.0687
      4 CAL        13.6420   -3.9669  -28.7822 C.ar        1 MOL      -0.0685
      5 CAR        12.8368   -4.6948  -27.8854 C.ar        1 MOL      -0.0578
      6 CBP        12.8637   -4.4210  -26.4935 C.ar        1 MOL      -0.0130
      7 CBB        12.0900   -5.2524  -25.5473 C.3         1 MOL       0.1113
      8 OBJ        12.7026   -6.5383  -25.3906 O.3         1 MOL      -0.2506
      9 CBM        13.2894   -7.0618  -24.2846 C.2         1 MOL       0.3232
     10 OAB        13.3942   -6.3384  -23.1381 O.2         1 MOL      -0.3774
     11 NBI        13.9061   -8.2584  -24.4030 N.am        1 MOL      -0.2418
     12 CBX        14.6758   -8.9275  -23.3939 C.3         1 MOL       0.1176
     13 CBE        14.5812  -10.4696  -23.6486 C.3         1 MOL       0.0205
     14 CBQ        15.5206  -11.3067  -22.8450 C.ar        1 MOL      -0.0393
     15 CAS        16.7589  -11.7417  -23.3727 C.ar        1 MOL      -0.0602
     16 CAM        17.7136  -12.3712  -22.5463 C.ar        1 MOL      -0.0686
     17 CAI        17.4354  -12.5805  -21.1857 C.ar        1 MOL      -0.0687
     18 CAN        16.1948  -12.1806  -20.6547 C.ar        1 MOL      -0.0686
     19 CAT        15.2403  -11.5643  -21.4806 C.ar        1 MOL      -0.0602
     20 PBY        16.2320   -8.2947  -23.4176 P.3         1 MOL       0.0154
     21 OAG        16.7897   -8.5253  -24.7369 O.co2       1 MOL      -0.6174
     22 OAD        17.1259   -9.0661  -22.5727 O.co2       1 MOL      -0.6174
     23 N          16.1338   -6.4442  -26.1411 N.am        1 MOL      -0.2694
     24 CA         16.2894   -6.7416  -27.5448 C.3         1 MOL       0.1024
     25 C          14.9516   -6.7089  -28.1679 C.2         1 MOL       0.0619
     26 OXT        13.9124   -7.3377  -27.5823 O.co2       1 MOL      -0.5665
     27 O          14.8525   -6.4210  -29.4925 O.co2       1 MOL      -0.5665
     28 CB         17.1134   -8.0469  -27.8838 C.3         1 MOL       0.0108
     29 CG         16.3902   -9.3433  -28.1224 C.ar        1 MOL      -0.0499
     30 CD1        16.5118  -10.4412  -27.2349 C.ar        1 MOL      -0.0686
     31 CE1        15.8273  -11.6444  -27.4664 C.ar        1 MOL      -0.0398
     32 CZ         15.0140  -11.7913  -28.6068 C.ar        1 MOL       0.0805
     33 OH         14.3220  -12.9302  -28.8374 O.3         1 MOL      -0.3376
     34 CE2        14.9283  -10.7353  -29.5300 C.ar        1 MOL      -0.0398
     35 CD2        15.6171   -9.5325  -29.2969 C.ar        1 MOL      -0.0686
     36 CBF        16.3555   -6.6868  -22.9561 C.3         1 MOL       0.0375
     37 CBV        16.7172   -5.5053  -23.9542 C.3         1 MOL       0.0788
     38 CBN        17.0242   -5.8531  -25.3497 C.2         1 MOL       0.1848
     39 OAC        18.1425   -5.5779  -25.7860 O.2         1 MOL      -0.3964
     40 CBC        15.6427   -4.3663  -23.9373 C.3         1 MOL       0.0422
     41 CBS        15.3508   -3.8091  -22.5953 C.2         1 MOL       0.1411
     42 CBA        14.1604   -3.9190  -21.8871 C.2         1 MOL      -0.0269
     43 OBK        16.2027   -3.1000  -21.8211 O.3         1 MOL      -0.1670
     44 NBG        15.6199   -2.8221  -20.6853 N.2         1 MOL      -0.1519
     45 CBU        14.3597   -3.2983  -20.6593 C.2         1 MOL       0.0430
     46 CBT        13.4498   -3.1530  -19.5681 C.ar        1 MOL      -0.0150
     47 CAU        12.1144   -3.6190  -19.6478 C.ar        1 MOL      -0.0551
     48 CAO        11.2244   -3.4609  -18.5684 C.ar        1 MOL      -0.0621
     49 CAJ        11.6575   -2.8394  -17.3845 C.ar        1 MOL      -0.0626
     50 CAP        12.9777   -2.3712  -17.2846 C.ar        1 MOL      -0.0621
     51 CAV        13.8635   -2.5259  -18.3671 C.ar        1 MOL      -0.0551
     52 H1         13.7504   -3.1544  -25.0419 H           1 MOL       0.0557
     53 H2         15.1468   -1.9252  -26.5879 H           1 MOL       0.0599
     54 H3         15.0651   -2.4086  -28.9634 H           1 MOL       0.0559
     55 H4         13.6494   -4.2037  -29.7765 H           1 MOL       0.0599
     56 H5         12.2374   -5.4348  -28.2515 H           1 MOL       0.0557
     57 H6         11.0819   -5.4048  -25.9298 H           1 MOL       0.0776
     58 H7         11.9962   -4.7459  -24.5854 H           1 MOL       0.0776
     59 H8         13.8857   -8.6737  -25.2779 H           1 MOL       0.1888
     60 H9         14.2645   -8.7304  -22.3950 H           1 MOL       0.0787
     61 H10        14.7369  -10.6611  -24.7125 H           1 MOL       0.0465
     62 H11        13.5673  -10.8010  -23.4299 H           1 MOL       0.0465
     63 H12        16.9978  -11.5650  -24.3529 H           1 MOL       0.0557
     64 H13        18.6175  -12.6482  -22.9322 H           1 MOL       0.0599
     65 H14        18.1285  -13.0299  -20.5845 H           1 MOL       0.0559
     66 H15        15.9943  -12.3240  -19.6643 H           1 MOL       0.0599
     67 H16        14.3457  -11.2713  -21.0763 H           1 MOL       0.0557
     68 H17        15.2693   -6.6364  -25.7479 H           1 MOL       0.1876
     69 H18        16.8365   -5.8940  -27.9783 H           1 MOL       0.0747
     70 H19        17.8536   -8.1806  -27.0916 H           1 MOL       0.0446
     71 H20        17.6928   -7.8449  -28.7937 H           1 MOL       0.0446
     72 H21        17.1117  -10.3712  -26.4135 H           1 MOL       0.0530
     73 H22        15.9239  -12.4171  -26.8066 H           1 MOL       0.0525
     74 H23        14.9826  -13.6560  -28.7989 H           1 MOL       0.2458
     75 H24        14.3696  -10.8484  -30.3752 H           1 MOL       0.0525
     76 H25        15.5494   -8.7869  -29.9930 H           1 MOL       0.0530
     77 H26        17.1073   -6.6549  -22.1522 H           1 MOL       0.0495
     78 H27        15.4145   -6.4532  -22.4499 H           1 MOL       0.0495
     79 H28        17.6170   -5.0370  -23.5342 H           1 MOL       0.0581
     80 H29        14.7189   -4.7766  -24.3531 H           1 MOL       0.0513
     81 H30        15.9466   -3.5320  -24.5754 H           1 MOL       0.0513
     82 H31        13.3144   -4.3874  -22.2228 H           1 MOL       0.0289
     83 H32        11.7625   -4.0733  -20.4909 H           1 MOL       0.0616
     84 H33        10.2618   -3.7888  -18.6482 H           1 MOL       0.0615
     85 H34        11.0103   -2.7216  -16.6014 H           1 MOL       0.0610
     86 H35        13.2910   -1.9101  -16.4281 H           1 MOL       0.0615
     87 H36        14.8164   -2.1696  -18.2639 H           1 MOL       0.0616
@<TRIPOS>BOND
     1     1     2  ar
     2     6     1  ar
     3     2     3  ar
     4     4     3  ar
     5     5     4  ar
     6     6     5  ar
     7     7     6   1
     8     8     7   1
     9     9     8   1
    10     9    10   2
    11    11     9  am
    12    12    11   1
    13    12    13   1
    14    20    12   1
    15    13    14   1
    16    14    15  ar
    17    14    19  ar
    18    15    16  ar
    19    16    17  ar
    20    18    17  ar
    21    19    18  ar
    22    20    21  ar
    23    20    22  ar
    24    36    20   1
    25    23    24   1
    26    38    23  am
    27    24    25   1
    28    24    28   1
    29    25    26  ar
    30    25    27  ar
    31    28    29   1
    32    29    30  ar
    33    29    35  ar
    34    30    31  ar
    35    31    32  ar
    36    32    33   1
    37    34    32  ar
    38    35    34  ar
    39    37    36   1
    40    37    38   1
    41    37    40   1
    42    38    39   2
    43    40    41   1
    44    41    42   2
    45    41    43   1
    46    42    45   1
    47    43    44   1
    48    44    45   2
    49    45    46   1
    50    46    47  ar
    51    46    51  ar
    52    47    48  ar
    53    48    49  ar
    54    49    50  ar
    55    50    51  ar
    56     1    52   1
    57     2    53   1
    58     3    54   1
    59     4    55   1
    60     5    56   1
    61     7    57   1
    62     7    58   1
    63    11    59   1
    64    12    60   1
    65    13    61   1
    66    13    62   1
    67    15    63   1
    68    16    64   1
    69    17    65   1
    70    18    66   1
    71    19    67   1
    72    23    68   1
    73    24    69   1
    74    28    70   1
    75    28    71   1
    76    30    72   1
    77    31    73   1
    78    33    74   1
    79    34    75   1
    80    35    76   1
    81    36    77   1
    82    36    78   1
    83    37    79   1
    84    40    80   1
    85    40    81   1
    86    42    82   1
    87    47    83   1
    88    48    84   1
    89    49    85   1
    90    50    86   1
    91    51    87   1
@<TRIPOS>SUBSTRUCTURE
     1  MOL      1

