@<TRIPOS>MOLECULE
2xy9_ligand_028
    87    91
SMALL
GAST_HUCK
****
This file was generated by PARSER (from files_GN.cpp)

@<TRIPOS>ATOM
      1 CAQ        14.2561  -13.7498  -26.2629 C.ar        1 MOL      -0.0578
      2 CAK        13.0842  -13.8021  -27.0393 C.ar        1 MOL      -0.0685
      3 CAH        12.9667  -13.0127  -28.1996 C.ar        1 MOL      -0.0687
      4 CAL        14.0271  -12.1732  -28.5803 C.ar        1 MOL      -0.0685
      5 CAR        15.1973  -12.1122  -27.7984 C.ar        1 MOL      -0.0578
      6 CBP        15.3301  -12.9037  -26.6335 C.ar        1 MOL      -0.0130
      7 CBB        16.5764  -12.8366  -25.8228 C.3         1 MOL       0.1113
      8 OBJ        16.5098  -11.7902  -24.8438 O.3         1 MOL      -0.2506
      9 CBM        16.2881  -10.4686  -25.0600 C.2         1 MOL       0.3232
     10 OAB        16.1174  -10.0088  -26.3273 O.2         1 MOL      -0.3774
     11 NBI        16.0838   -9.6882  -23.9795 N.am        1 MOL      -0.2418
     12 CBX        15.3744   -8.4343  -23.9861 C.3         1 MOL       0.1176
     13 CBE        13.9556   -8.7102  -23.3966 C.3         1 MOL       0.0205
     14 CBQ        13.2371   -9.9290  -23.8712 C.ar        1 MOL      -0.0393
     15 CAS        12.8357  -10.0493  -25.2246 C.ar        1 MOL      -0.0602
     16 CAM        12.0576  -11.1425  -25.6479 C.ar        1 MOL      -0.0686
     17 CAI        11.6572  -12.1233  -24.7249 C.ar        1 MOL      -0.0687
     18 CAN        12.0644  -12.0275  -23.3802 C.ar        1 MOL      -0.0686
     19 CAT        12.8552  -10.9443  -22.9603 C.ar        1 MOL      -0.0602
     20 PBY        16.2248   -7.2093  -23.1937 P.3         1 MOL       0.0154
     21 OAG        16.8197   -6.3357  -24.1782 O.co2       1 MOL      -0.6174
     22 OAD        17.3946   -7.7853  -22.5768 O.co2       1 MOL      -0.6174
     23 N          13.4286   -4.9474  -23.9352 N.am        1 MOL      -0.2694
     24 CA         12.6279   -4.6526  -25.1041 C.3         1 MOL       0.1024
     25 C          12.3867   -5.9087  -25.8354 C.2         1 MOL       0.0619
     26 OXT        11.2220   -6.1213  -26.4873 O.co2       1 MOL      -0.5665
     27 O          13.3697   -6.8349  -25.9392 O.co2       1 MOL      -0.5665
     28 CB         12.9647   -3.4677  -26.0780 C.3         1 MOL       0.0108
     29 CG         14.1488   -3.5592  -26.9906 C.ar        1 MOL      -0.0499
     30 CD1        15.2876   -2.7381  -26.7996 C.ar        1 MOL      -0.0686
     31 CE1        16.3860   -2.7966  -27.6780 C.ar        1 MOL      -0.0398
     32 CZ         16.3617   -3.6680  -28.7851 C.ar        1 MOL       0.0805
     33 OH         17.4093   -3.7329  -29.6440 O.3         1 MOL      -0.3376
     34 CE2        15.2233   -4.4620  -29.0113 C.ar        1 MOL      -0.0398
     35 CD2        14.1213   -4.3915  -28.1380 C.ar        1 MOL      -0.0686
     36 CBF        15.4421   -6.3130  -21.9959 C.3         1 MOL       0.0375
     37 CBV        15.1588   -4.7903  -22.2110 C.3         1 MOL       0.0788
     38 CBN        14.5822   -4.4261  -23.5136 C.2         1 MOL       0.1848
     39 OAC        15.1573   -3.5577  -24.1592 O.2         1 MOL      -0.3964
     40 CBC        14.2821   -4.2025  -21.0376 C.3         1 MOL       0.0422
     41 CBS        15.0033   -3.3240  -20.0965 C.2         1 MOL       0.1411
     42 CBA        14.7073   -3.1178  -18.7565 C.2         1 MOL      -0.0269
     43 OBK        15.9676   -2.4366  -20.4300 O.3         1 MOL      -0.1670
     44 NBG        16.2768   -1.7261  -19.3772 N.2         1 MOL      -0.1519
     45 CBU        15.5285   -2.0826  -18.3167 C.2         1 MOL       0.0430
     46 CBT        15.5588   -1.4284  -17.0514 C.ar        1 MOL      -0.0150
     47 CAU        14.6701   -1.7785  -16.0037 C.ar        1 MOL      -0.0551
     48 CAO        14.6782   -1.0846  -14.7807 C.ar        1 MOL      -0.0621
     49 CAJ        15.5784   -0.0256  -14.5763 C.ar        1 MOL      -0.0626
     50 CAP        16.4739    0.3339  -15.5979 C.ar        1 MOL      -0.0621
     51 CAV        16.4657   -0.3600  -16.8187 C.ar        1 MOL      -0.0551
     52 H1         14.3244  -14.3317  -25.4248 H           1 MOL       0.0557
     53 H2         12.3111  -14.4138  -26.7611 H           1 MOL       0.0599
     54 H3         12.1166  -13.0558  -28.7643 H           1 MOL       0.0559
     55 H4         13.9532  -11.5976  -29.4215 H           1 MOL       0.0599
     56 H5         15.9566  -11.5002  -28.1045 H           1 MOL       0.0557
     57 H6         17.4539  -12.6909  -26.4581 H           1 MOL       0.0776
     58 H7         16.7184  -13.7778  -25.2908 H           1 MOL       0.0776
     59 H8         16.2485  -10.0905  -23.1077 H           1 MOL       0.1888
     60 H9         15.2214   -8.0874  -25.0145 H           1 MOL       0.0787
     61 H10        13.3178   -7.8589  -23.6543 H           1 MOL       0.0465
     62 H11        14.0335   -8.7416  -22.3053 H           1 MOL       0.0465
     63 H12        13.0895   -9.3307  -25.9014 H           1 MOL       0.0557
     64 H13        11.7760  -11.2165  -26.6279 H           1 MOL       0.0599
     65 H14        11.0805  -12.9086  -25.0291 H           1 MOL       0.0559
     66 H15        11.7753  -12.7413  -22.7111 H           1 MOL       0.0599
     67 H16        13.1353  -10.8916  -21.9766 H           1 MOL       0.0557
     68 H17        13.0475   -5.6240  -23.3448 H           1 MOL       0.1876
     69 H18        11.6630   -4.3668  -24.6705 H           1 MOL       0.0747
     70 H19        13.0475   -2.5779  -25.4582 H           1 MOL       0.0446
     71 H20        12.0918   -3.2912  -26.7169 H           1 MOL       0.0446
     72 H21        15.3282   -2.0836  -26.0155 H           1 MOL       0.0530
     73 H22        17.1984   -2.1982  -27.5114 H           1 MOL       0.0525
     74 H23        17.9647   -2.9441  -29.4654 H           1 MOL       0.2458
     75 H24        15.1861   -5.0832  -29.8249 H           1 MOL       0.0525
     76 H25        13.2914   -4.9452  -28.3570 H           1 MOL       0.0530
     77 H26        16.0461   -6.3959  -21.0881 H           1 MOL       0.0495
     78 H27        14.4974   -6.7943  -21.7584 H           1 MOL       0.0495
     79 H28        16.1509   -4.3217  -22.1638 H           1 MOL       0.0581
     80 H29        13.8160   -5.0051  -20.4593 H           1 MOL       0.0513
     81 H30        13.4513   -3.6039  -21.4213 H           1 MOL       0.0513
     82 H31        13.9864   -3.6052  -18.2254 H           1 MOL       0.0289
     83 H32        13.9933   -2.5353  -16.1200 H           1 MOL       0.0616
     84 H33        14.0242   -1.3471  -14.0369 H           1 MOL       0.0615
     85 H34        15.5836    0.4803  -13.6864 H           1 MOL       0.0610
     86 H35        17.1333    1.1047  -15.4483 H           1 MOL       0.0615
     87 H36        17.1265   -0.0666  -17.5442 H           1 MOL       0.0616
@<TRIPOS>BOND
     1     1     2  ar
     2     6     1  ar
     3     2     3  ar
     4     4     3  ar
     5     5     4  ar
     6     6     5  ar
     7     7     6   1
     8     8     7   1
     9     9     8   1
    10     9    10   2
    11    11     9  am
    12    12    11   1
    13    12    13   1
    14    20    12   1
    15    13    14   1
    16    14    15  ar
    17    14    19  ar
    18    15    16  ar
    19    16    17  ar
    20    18    17  ar
    21    19    18  ar
    22    20    21  ar
    23    20    22  ar
    24    36    20   1
    25    23    24   1
    26    38    23  am
    27    24    25   1
    28    24    28   1
    29    25    26  ar
    30    25    27  ar
    31    28    29   1
    32    29    30  ar
    33    29    35  ar
    34    30    31  ar
    35    31    32  ar
    36    32    33   1
    37    34    32  ar
    38    35    34  ar
    39    37    36   1
    40    37    38   1
    41    37    40   1
    42    38    39   2
    43    40    41   1
    44    41    42   2
    45    41    43   1
    46    42    45   1
    47    43    44   1
    48    44    45   2
    49    45    46   1
    50    46    47  ar
    51    46    51  ar
    52    47    48  ar
    53    48    49  ar
    54    49    50  ar
    55    50    51  ar
    56     1    52   1
    57     2    53   1
    58     3    54   1
    59     4    55   1
    60     5    56   1
    61     7    57   1
    62     7    58   1
    63    11    59   1
    64    12    60   1
    65    13    61   1
    66    13    62   1
    67    15    63   1
    68    16    64   1
    69    17    65   1
    70    18    66   1
    71    19    67   1
    72    23    68   1
    73    24    69   1
    74    28    70   1
    75    28    71   1
    76    30    72   1
    77    31    73   1
    78    33    74   1
    79    34    75   1
    80    35    76   1
    81    36    77   1
    82    36    78   1
    83    37    79   1
    84    40    80   1
    85    40    81   1
    86    42    82   1
    87    47    83   1
    88    48    84   1
    89    49    85   1
    90    50    86   1
    91    51    87   1
@<TRIPOS>SUBSTRUCTURE
     1  MOL      1

