@<TRIPOS>MOLECULE
2xy9_ligand_076
    87    91
SMALL
GAST_HUCK
****
This file was generated by PARSER (from files_GN.cpp)

@<TRIPOS>ATOM
      1 CAQ        18.0135   -4.2508  -26.7082 C.ar        1 MOL      -0.0578
      2 CAK        18.1651   -3.6584  -27.9747 C.ar        1 MOL      -0.0685
      3 CAH        19.0737   -4.2100  -28.8983 C.ar        1 MOL      -0.0687
      4 CAL        19.8567   -5.3168  -28.5378 C.ar        1 MOL      -0.0685
      5 CAR        19.6819   -5.9213  -27.2801 C.ar        1 MOL      -0.0578
      6 CBP        18.7533   -5.4017  -26.3474 C.ar        1 MOL      -0.0130
      7 CBB        18.5068   -6.0899  -25.0464 C.3         1 MOL       0.1113
      8 OBJ        17.1773   -5.9650  -24.5012 O.3         1 MOL      -0.2506
      9 CBM        15.9875   -6.0981  -25.1588 C.2         1 MOL       0.3232
     10 OAB        15.9825   -6.3125  -26.4998 O.2         1 MOL      -0.3774
     11 NBI        14.8412   -5.9765  -24.4430 N.am        1 MOL      -0.2418
     12 CBX        13.4583   -5.9570  -24.8737 C.3         1 MOL       0.1176
     13 CBE        12.9215   -4.4905  -24.9906 C.3         1 MOL       0.0205
     14 CBQ        13.6599   -3.5882  -25.9190 C.ar        1 MOL      -0.0393
     15 CAS        14.9236   -3.0679  -25.5517 C.ar        1 MOL      -0.0602
     16 CAM        15.6056   -2.1583  -26.3832 C.ar        1 MOL      -0.0686
     17 CAI        15.0222   -1.7422  -27.5905 C.ar        1 MOL      -0.0687
     18 CAN        13.7619   -2.2356  -27.9668 C.ar        1 MOL      -0.0686
     19 CAT        13.0843   -3.1510  -27.1364 C.ar        1 MOL      -0.0602
     20 PBY        13.0022   -6.9824  -26.1278 P.3         1 MOL       0.0154
     21 OAG        13.4084   -6.4746  -27.4114 O.co2       1 MOL      -0.6174
     22 OAD        11.5617   -7.0405  -26.1965 O.co2       1 MOL      -0.6174
     23 N          15.2732   -9.3177  -28.1305 N.am        1 MOL      -0.2694
     24 CA         16.4507   -9.6601  -28.8935 C.3         1 MOL       0.1024
     25 C          17.6386   -9.3339  -28.0727 C.2         1 MOL       0.0619
     26 OXT        17.8438   -8.0886  -27.5794 O.co2       1 MOL      -0.5665
     27 O          18.5886  -10.2693  -27.8473 O.co2       1 MOL      -0.5665
     28 CB         16.5067   -8.9655  -30.2867 C.3         1 MOL       0.0108
     29 CG         16.0043   -7.5618  -30.3264 C.ar        1 MOL      -0.0499
     30 CD1        16.8838   -6.4698  -30.5095 C.ar        1 MOL      -0.0686
     31 CE1        16.3890   -5.1493  -30.5389 C.ar        1 MOL      -0.0398
     32 CZ         15.0077   -4.9121  -30.3890 C.ar        1 MOL       0.0805
     33 OH         14.5133   -3.6544  -30.3830 O.3         1 MOL      -0.3376
     34 CE2        14.1233   -5.9924  -30.2360 C.ar        1 MOL      -0.0398
     35 CD2        14.6191   -7.3044  -30.1943 C.ar        1 MOL      -0.0686
     36 CBF        13.5635   -8.5414  -25.8761 C.3         1 MOL       0.0375
     37 CBV        13.1569   -9.6496  -26.9320 C.3         1 MOL       0.0788
     38 CBN        14.2472  -10.1032  -27.8177 C.2         1 MOL       0.1848
     39 OAC        14.1652  -11.2041  -28.3544 O.2         1 MOL      -0.3964
     40 CBC        12.4060  -10.8412  -26.2298 C.3         1 MOL       0.0422
     41 CBS        13.2708  -11.8083  -25.5218 C.2         1 MOL       0.1411
     42 CBA        14.2202  -11.5748  -24.5351 C.2         1 MOL      -0.0269
     43 OBK        13.3109  -13.1291  -25.7981 O.3         1 MOL      -0.1670
     44 NBG        14.2236  -13.7034  -25.0579 N.2         1 MOL      -0.1519
     45 CBU        14.8315  -12.7984  -24.2653 C.2         1 MOL       0.0430
     46 CBT        15.9176  -13.0805  -23.3882 C.ar        1 MOL      -0.0150
     47 CAU        16.5698  -12.0630  -22.6445 C.ar        1 MOL      -0.0551
     48 CAO        17.6546  -12.3567  -21.8011 C.ar        1 MOL      -0.0621
     49 CAJ        18.1111  -13.6830  -21.6788 C.ar        1 MOL      -0.0626
     50 CAP        17.4838  -14.7064  -22.4057 C.ar        1 MOL      -0.0621
     51 CAV        16.4038  -14.4085  -23.2564 C.ar        1 MOL      -0.0551
     52 H1         17.3596   -3.8345  -26.0440 H           1 MOL       0.0557
     53 H2         17.6089   -2.8370  -28.2221 H           1 MOL       0.0599
     54 H3         19.1997   -3.7752  -29.8159 H           1 MOL       0.0559
     55 H4         20.5262   -5.6964  -29.1966 H           1 MOL       0.0599
     56 H5         20.2452   -6.7342  -27.0397 H           1 MOL       0.0557
     57 H6         19.2086   -5.6985  -24.3126 H           1 MOL       0.0776
     58 H7         18.7024   -7.1575  -25.1512 H           1 MOL       0.0776
     59 H8         14.9631   -5.8143  -23.4891 H           1 MOL       0.1888
     60 H9         12.9266   -6.3794  -24.0143 H           1 MOL       0.0787
     61 H10        12.9426   -4.0375  -23.9934 H           1 MOL       0.0465
     62 H11        11.8587   -4.5130  -25.2575 H           1 MOL       0.0465
     63 H12        15.3525   -3.3321  -24.6616 H           1 MOL       0.0557
     64 H13        16.4978   -1.7572  -26.0847 H           1 MOL       0.0599
     65 H14        15.5085   -1.0714  -28.1895 H           1 MOL       0.0559
     66 H15        13.3273   -1.9027  -28.8295 H           1 MOL       0.0599
     67 H16        12.1599   -3.4860  -27.4235 H           1 MOL       0.0557
     68 H17        15.2461   -8.4160  -27.7777 H           1 MOL       0.1876
     69 H18        16.4873  -10.7394  -29.0880 H           1 MOL       0.0747
     70 H19        15.9236   -9.5658  -30.9898 H           1 MOL       0.0446
     71 H20        17.5363   -9.0038  -30.6657 H           1 MOL       0.0446
     72 H21        17.8874   -6.6218  -30.6161 H           1 MOL       0.0530
     73 H22        17.0349   -4.3670  -30.6623 H           1 MOL       0.0525
     74 H23        15.0600   -3.1776  -29.7240 H           1 MOL       0.2458
     75 H24        13.1187   -5.8206  -30.1481 H           1 MOL       0.0525
     76 H25        13.9600   -8.0749  -30.0746 H           1 MOL       0.0530
     77 H26        13.1794   -8.8107  -24.8904 H           1 MOL       0.0495
     78 H27        14.6474   -8.5027  -25.7697 H           1 MOL       0.0495
     79 H28        12.4137   -9.2172  -27.6126 H           1 MOL       0.0581
     80 H29        11.8453  -11.3905  -26.9901 H           1 MOL       0.0513
     81 H30        11.6646  -10.4563  -25.5268 H           1 MOL       0.0513
     82 H31        14.4471  -10.6736  -24.1184 H           1 MOL       0.0289
     83 H32        16.2666  -11.0886  -22.7086 H           1 MOL       0.0616
     84 H33        18.1150  -11.6093  -21.2810 H           1 MOL       0.0615
     85 H34        18.8987  -13.8975  -21.0638 H           1 MOL       0.0610
     86 H35        17.8174  -15.6696  -22.3221 H           1 MOL       0.0615
     87 H36        15.9704  -15.1769  -23.7735 H           1 MOL       0.0616
@<TRIPOS>BOND
     1     1     2  ar
     2     6     1  ar
     3     2     3  ar
     4     4     3  ar
     5     5     4  ar
     6     6     5  ar
     7     7     6   1
     8     8     7   1
     9     9     8   1
    10     9    10   2
    11    11     9  am
    12    12    11   1
    13    12    13   1
    14    20    12   1
    15    13    14   1
    16    14    15  ar
    17    14    19  ar
    18    15    16  ar
    19    16    17  ar
    20    18    17  ar
    21    19    18  ar
    22    20    21  ar
    23    20    22  ar
    24    36    20   1
    25    23    24   1
    26    38    23  am
    27    24    25   1
    28    24    28   1
    29    25    26  ar
    30    25    27  ar
    31    28    29   1
    32    29    30  ar
    33    29    35  ar
    34    30    31  ar
    35    31    32  ar
    36    32    33   1
    37    34    32  ar
    38    35    34  ar
    39    37    36   1
    40    37    38   1
    41    37    40   1
    42    38    39   2
    43    40    41   1
    44    41    42   2
    45    41    43   1
    46    42    45   1
    47    43    44   1
    48    44    45   2
    49    45    46   1
    50    46    47  ar
    51    46    51  ar
    52    47    48  ar
    53    48    49  ar
    54    49    50  ar
    55    50    51  ar
    56     1    52   1
    57     2    53   1
    58     3    54   1
    59     4    55   1
    60     5    56   1
    61     7    57   1
    62     7    58   1
    63    11    59   1
    64    12    60   1
    65    13    61   1
    66    13    62   1
    67    15    63   1
    68    16    64   1
    69    17    65   1
    70    18    66   1
    71    19    67   1
    72    23    68   1
    73    24    69   1
    74    28    70   1
    75    28    71   1
    76    30    72   1
    77    31    73   1
    78    33    74   1
    79    34    75   1
    80    35    76   1
    81    36    77   1
    82    36    78   1
    83    37    79   1
    84    40    80   1
    85    40    81   1
    86    42    82   1
    87    47    83   1
    88    48    84   1
    89    49    85   1
    90    50    86   1
    91    51    87   1
@<TRIPOS>SUBSTRUCTURE
     1  MOL      1

