@<TRIPOS>MOLECULE
2xy9_ligand_090
    87    91
SMALL
GAST_HUCK
****
This file was generated by PARSER (from files_GN.cpp)

@<TRIPOS>ATOM
      1 CAQ        16.0596   -1.3954  -25.4565 C.ar        1 MOL      -0.0578
      2 CAK        16.5286   -1.2650  -26.7753 C.ar        1 MOL      -0.0685
      3 CAH        17.1233   -2.3667  -27.4143 C.ar        1 MOL      -0.0687
      4 CAL        17.2784   -3.5804  -26.7239 C.ar        1 MOL      -0.0685
      5 CAR        16.8175   -3.7055  -25.4003 C.ar        1 MOL      -0.0578
      6 CBP        16.1591   -2.6237  -24.7618 C.ar        1 MOL      -0.0130
      7 CBB        15.5277   -2.8015  -23.4202 C.3         1 MOL       0.1113
      8 OBJ        14.4552   -3.7694  -23.3288 O.3         1 MOL      -0.2506
      9 CBM        13.8205   -4.5109  -24.2755 C.2         1 MOL       0.3232
     10 OAB        14.2439   -4.4396  -25.5507 O.2         1 MOL      -0.3774
     11 NBI        12.8286   -5.3643  -23.9333 N.am        1 MOL      -0.2418
     12 CBX        12.1161   -6.2589  -24.8129 C.3         1 MOL       0.1176
     13 CBE        11.4635   -5.5763  -26.0691 C.3         1 MOL       0.0205
     14 CBQ        12.3116   -4.8899  -27.0882 C.ar        1 MOL      -0.0393
     15 CAS        13.2209   -5.6108  -27.8987 C.ar        1 MOL      -0.0602
     16 CAM        14.1037   -4.9454  -28.7674 C.ar        1 MOL      -0.0686
     17 CAI        14.0711   -3.5436  -28.8654 C.ar        1 MOL      -0.0687
     18 CAN        13.1567   -2.8112  -28.0857 C.ar        1 MOL      -0.0686
     19 CAT        12.2728   -3.4767  -27.2199 C.ar        1 MOL      -0.0602
     20 PBY        12.8991   -7.7295  -25.0291 P.3         1 MOL       0.0154
     21 OAG        12.4742   -8.3015  -26.2923 O.co2       1 MOL      -0.6174
     22 OAD        12.3900   -8.6822  -24.0679 O.co2       1 MOL      -0.6174
     23 N          14.5307  -11.1726  -26.3244 N.am        1 MOL      -0.2694
     24 CA         14.1997  -12.0166  -27.4379 C.3         1 MOL       0.1024
     25 C          13.4977  -11.2964  -28.5202 C.2         1 MOL       0.0619
     26 OXT        12.2393  -10.8336  -28.3510 O.co2       1 MOL      -0.5665
     27 O          14.1547  -11.0107  -29.6683 O.co2       1 MOL      -0.5665
     28 CB         13.3913  -13.2435  -26.9182 C.3         1 MOL       0.0108
     29 CG         12.9003  -14.1810  -27.9701 C.ar        1 MOL      -0.0499
     30 CD1        11.6489  -14.8345  -27.8259 C.ar        1 MOL      -0.0686
     31 CE1        11.1865  -15.7164  -28.8157 C.ar        1 MOL      -0.0398
     32 CZ         11.9577  -15.9538  -29.9660 C.ar        1 MOL       0.0805
     33 OH         11.5199  -16.8140  -30.9079 O.3         1 MOL      -0.3376
     34 CE2        13.1997  -15.3148  -30.1230 C.ar        1 MOL      -0.0398
     35 CD2        13.6699  -14.4373  -29.1257 C.ar        1 MOL      -0.0686
     36 CBF        14.5664   -7.7883  -24.8948 C.3         1 MOL       0.0375
     37 CBV        15.2522   -9.1658  -25.1751 C.3         1 MOL       0.0788
     38 CBN        14.7283   -9.8625  -26.3492 C.2         1 MOL       0.1848
     39 OAC        14.4089   -9.1987  -27.3338 O.2         1 MOL      -0.3964
     40 CBC        16.8139   -9.0703  -25.2452 C.3         1 MOL       0.0422
     41 CBS        17.4336   -8.2613  -26.3218 C.2         1 MOL       0.1411
     42 CBA        17.4036   -8.4588  -27.6971 C.2         1 MOL      -0.0269
     43 OBK        18.2447   -7.1976  -26.1145 O.3         1 MOL      -0.1670
     44 NBG        18.6504   -6.7188  -27.2594 N.2         1 MOL      -0.1519
     45 CBU        18.1258   -7.4274  -28.2805 C.2         1 MOL       0.0430
     46 CBT        18.2522   -7.1195  -29.6631 C.ar        1 MOL      -0.0150
     47 CAU        17.2999   -7.5818  -30.6102 C.ar        1 MOL      -0.0551
     48 CAO        17.3890   -7.2144  -31.9658 C.ar        1 MOL      -0.0621
     49 CAJ        18.4399   -6.3893  -32.4022 C.ar        1 MOL      -0.0626
     50 CAP        19.3975   -5.9311  -31.4829 C.ar        1 MOL      -0.0621
     51 CAV        19.2972   -6.2834  -30.1219 C.ar        1 MOL      -0.0551
     52 H1         15.6292   -0.5844  -25.0132 H           1 MOL       0.0557
     53 H2         16.4212   -0.3819  -27.2739 H           1 MOL       0.0599
     54 H3         17.4363   -2.2901  -28.3869 H           1 MOL       0.0559
     55 H4         17.7059   -4.3734  -27.1956 H           1 MOL       0.0599
     56 H5         16.9209   -4.6049  -24.9192 H           1 MOL       0.0557
     57 H6         15.1021   -1.8570  -23.0845 H           1 MOL       0.0776
     58 H7         16.2862   -3.0819  -22.6884 H           1 MOL       0.0776
     59 H8         12.6033   -5.4125  -22.9840 H           1 MOL       0.1888
     60 H9         11.2446   -6.5394  -24.2165 H           1 MOL       0.0787
     61 H10        10.7335   -4.8611  -25.6827 H           1 MOL       0.0465
     62 H11        10.8758   -6.3244  -26.5983 H           1 MOL       0.0465
     63 H12        13.2742   -6.6242  -27.8420 H           1 MOL       0.0557
     64 H13        14.7948   -5.4763  -29.3065 H           1 MOL       0.0599
     65 H14        14.7254   -3.0558  -29.4874 H           1 MOL       0.0559
     66 H15        13.1546   -1.7908  -28.1400 H           1 MOL       0.0599
     67 H16        11.6342   -2.9216  -26.6539 H           1 MOL       0.0557
     68 H17        14.7092  -11.6243  -25.4805 H           1 MOL       0.1876
     69 H18        15.1465  -12.3915  -27.8413 H           1 MOL       0.0747
     70 H19        12.5510  -12.8706  -26.3260 H           1 MOL       0.0446
     71 H20        14.0283  -13.8124  -26.2372 H           1 MOL       0.0446
     72 H21        11.0732  -14.6771  -26.9972 H           1 MOL       0.0530
     73 H22        10.2848  -16.1875  -28.6967 H           1 MOL       0.0525
     74 H23        11.9557  -17.6563  -30.6659 H           1 MOL       0.2458
     75 H24        13.7619  -15.4828  -30.9605 H           1 MOL       0.0525
     76 H25        14.5774  -13.9846  -29.2590 H           1 MOL       0.0530
     77 H26        14.8111   -7.4860  -23.8751 H           1 MOL       0.0495
     78 H27        14.9961   -7.0557  -25.5731 H           1 MOL       0.0495
     79 H28        15.0519   -9.7898  -24.2970 H           1 MOL       0.0581
     80 H29        17.2144  -10.0835  -25.3205 H           1 MOL       0.0513
     81 H30        17.1652   -8.6688  -24.2931 H           1 MOL       0.0513
     82 H31        16.9480   -9.2222  -28.1977 H           1 MOL       0.0289
     83 H32        16.5111   -8.1624  -30.3209 H           1 MOL       0.0616
     84 H33        16.6831   -7.5374  -32.6311 H           1 MOL       0.0615
     85 H34        18.5023   -6.1146  -33.3862 H           1 MOL       0.0610
     86 H35        20.1631   -5.3356  -31.8006 H           1 MOL       0.0615
     87 H36        19.9983   -5.9201  -29.4733 H           1 MOL       0.0616
@<TRIPOS>BOND
     1     1     2  ar
     2     6     1  ar
     3     2     3  ar
     4     4     3  ar
     5     5     4  ar
     6     6     5  ar
     7     7     6   1
     8     8     7   1
     9     9     8   1
    10     9    10   2
    11    11     9  am
    12    12    11   1
    13    12    13   1
    14    20    12   1
    15    13    14   1
    16    14    15  ar
    17    14    19  ar
    18    15    16  ar
    19    16    17  ar
    20    18    17  ar
    21    19    18  ar
    22    20    21  ar
    23    20    22  ar
    24    36    20   1
    25    23    24   1
    26    38    23  am
    27    24    25   1
    28    24    28   1
    29    25    26  ar
    30    25    27  ar
    31    28    29   1
    32    29    30  ar
    33    29    35  ar
    34    30    31  ar
    35    31    32  ar
    36    32    33   1
    37    34    32  ar
    38    35    34  ar
    39    37    36   1
    40    37    38   1
    41    37    40   1
    42    38    39   2
    43    40    41   1
    44    41    42   2
    45    41    43   1
    46    42    45   1
    47    43    44   1
    48    44    45   2
    49    45    46   1
    50    46    47  ar
    51    46    51  ar
    52    47    48  ar
    53    48    49  ar
    54    49    50  ar
    55    50    51  ar
    56     1    52   1
    57     2    53   1
    58     3    54   1
    59     4    55   1
    60     5    56   1
    61     7    57   1
    62     7    58   1
    63    11    59   1
    64    12    60   1
    65    13    61   1
    66    13    62   1
    67    15    63   1
    68    16    64   1
    69    17    65   1
    70    18    66   1
    71    19    67   1
    72    23    68   1
    73    24    69   1
    74    28    70   1
    75    28    71   1
    76    30    72   1
    77    31    73   1
    78    33    74   1
    79    34    75   1
    80    35    76   1
    81    36    77   1
    82    36    78   1
    83    37    79   1
    84    40    80   1
    85    40    81   1
    86    42    82   1
    87    47    83   1
    88    48    84   1
    89    49    85   1
    90    50    86   1
    91    51    87   1
@<TRIPOS>SUBSTRUCTURE
     1  MOL      1

