@<TRIPOS>MOLECULE
2xy9_ligand_045
    87    91
SMALL
GAST_HUCK
****
This file was generated by PARSER (from files_GN.cpp)

@<TRIPOS>ATOM
      1 CAQ        17.7337   -9.8719  -29.4048 C.ar        1 MOL      -0.0578
      2 CAK        18.9481   -9.9043  -30.1160 C.ar        1 MOL      -0.0685
      3 CAH        19.0950   -9.1530  -31.2928 C.ar        1 MOL      -0.0687
      4 CAL        18.0263   -8.3668  -31.7608 C.ar        1 MOL      -0.0685
      5 CAR        16.8175   -8.3197  -31.0389 C.ar        1 MOL      -0.0578
      6 CBP        16.6559   -9.0653  -29.8465 C.ar        1 MOL      -0.0130
      7 CBB        15.3995   -9.0033  -29.0561 C.3         1 MOL       0.1113
      8 OBJ        15.7155   -8.9874  -27.6558 O.3         1 MOL      -0.2506
      9 CBM        14.9435   -8.6084  -26.6102 C.2         1 MOL       0.3232
     10 OAB        13.7048   -8.0942  -26.8269 O.2         1 MOL      -0.3774
     11 NBI        15.4637   -8.7395  -25.3694 N.am        1 MOL      -0.2418
     12 CBX        14.8897   -8.2447  -24.1495 C.3         1 MOL       0.1176
     13 CBE        14.5542   -9.3951  -23.1335 C.3         1 MOL       0.0205
     14 CBQ        15.4267  -10.6083  -23.1367 C.ar        1 MOL      -0.0393
     15 CAS        14.8755  -11.8974  -23.3487 C.ar        1 MOL      -0.0602
     16 CAM        15.6929  -13.0432  -23.3430 C.ar        1 MOL      -0.0686
     17 CAI        17.0784  -12.9193  -23.1340 C.ar        1 MOL      -0.0687
     18 CAN        17.6367  -11.6535  -22.8898 C.ar        1 MOL      -0.0686
     19 CAT        16.8132  -10.5131  -22.8727 C.ar        1 MOL      -0.0602
     20 PBY        15.7979   -6.9639  -23.5548 P.3         1 MOL       0.0154
     21 OAG        15.9994   -6.0446  -24.6488 O.co2       1 MOL      -0.6174
     22 OAD        17.1658   -7.3362  -23.2465 O.co2       1 MOL      -0.6174
     23 N          13.4177   -4.6979  -24.3173 N.am        1 MOL      -0.2694
     24 CA         12.9143   -4.2424  -25.5830 C.3         1 MOL       0.1024
     25 C          11.6079   -4.9109  -25.7697 C.2         1 MOL       0.0619
     26 OXT        10.4671   -4.2205  -25.5659 O.co2       1 MOL      -0.5665
     27 O          11.5016   -6.1216  -26.3648 O.co2       1 MOL      -0.5665
     28 CB         13.8668   -4.5056  -26.8055 C.3         1 MOL       0.0108
     29 CG         14.6407   -3.3129  -27.2564 C.ar        1 MOL      -0.0499
     30 CD1        13.9920   -2.2869  -27.9841 C.ar        1 MOL      -0.0686
     31 CE1        14.7119   -1.1843  -28.4795 C.ar        1 MOL      -0.0398
     32 CZ         16.0940   -1.0858  -28.2453 C.ar        1 MOL       0.0805
     33 OH         16.7771   -0.0247  -28.7443 O.3         1 MOL      -0.3376
     34 CE2        16.7527   -2.0945  -27.5155 C.ar        1 MOL      -0.0398
     35 CD2        16.0333   -3.2025  -27.0332 C.ar        1 MOL      -0.0686
     36 CBF        15.0291   -6.2229  -22.2648 C.3         1 MOL       0.0375
     37 CBV        14.7358   -4.6823  -22.2794 C.3         1 MOL       0.0788
     38 CBN        14.3755   -4.1373  -23.5917 C.2         1 MOL       0.1848
     39 OAC        14.9535   -3.1289  -23.9821 O.2         1 MOL      -0.3964
     40 CBC        13.6032   -4.3181  -21.2432 C.3         1 MOL       0.0422
     41 CBS        14.0695   -3.7207  -19.9794 C.2         1 MOL       0.1411
     42 CBA        14.8420   -2.5797  -19.8358 C.2         1 MOL      -0.0269
     43 OBK        13.7040   -4.1160  -18.7386 O.3         1 MOL      -0.1670
     44 NBG        14.2268   -3.3008  -17.8617 N.2         1 MOL      -0.1519
     45 CBU        14.9311   -2.3223  -18.4707 C.2         1 MOL       0.0430
     46 CBT        15.5675   -1.2345  -17.8082 C.ar        1 MOL      -0.0150
     47 CAU        16.2278   -0.2039  -18.5245 C.ar        1 MOL      -0.0551
     48 CAO        16.8331    0.8767  -17.8560 C.ar        1 MOL      -0.0621
     49 CAJ        16.7766    0.9559  -16.4542 C.ar        1 MOL      -0.0626
     50 CAP        16.1212   -0.0492  -15.7246 C.ar        1 MOL      -0.0621
     51 CAV        15.5289   -1.1363  -16.3936 C.ar        1 MOL      -0.0551
     52 H1         17.6468  -10.4208  -28.5465 H           1 MOL       0.0557
     53 H2         19.7272  -10.4719  -29.7717 H           1 MOL       0.0599
     54 H3         19.9773   -9.1769  -31.8095 H           1 MOL       0.0559
     55 H4         18.1299   -7.8259  -32.6222 H           1 MOL       0.0599
     56 H5         16.0547   -7.7383  -31.3948 H           1 MOL       0.0557
     57 H6         14.7943   -9.8874  -29.2682 H           1 MOL       0.0776
     58 H7         14.8138   -8.1166  -29.3185 H           1 MOL       0.0776
     59 H8         16.3327   -9.1730  -25.3087 H           1 MOL       0.1888
     60 H9         13.9263   -7.7757  -24.3871 H           1 MOL       0.0787
     61 H10        13.5297   -9.7104  -23.3605 H           1 MOL       0.0465
     62 H11        14.5134   -9.0126  -22.1093 H           1 MOL       0.0465
     63 H12        13.8718  -12.0133  -23.5023 H           1 MOL       0.0557
     64 H13        15.2782  -13.9677  -23.4878 H           1 MOL       0.0599
     65 H14        17.6739  -13.7497  -23.1488 H           1 MOL       0.0559
     66 H15        18.6391  -11.5639  -22.7114 H           1 MOL       0.0599
     67 H16        17.2326   -9.6149  -22.6423 H           1 MOL       0.0557
     68 H17        12.9974   -5.4867  -23.9363 H           1 MOL       0.1876
     69 H18        12.7188   -3.1655  -25.4926 H           1 MOL       0.0747
     70 H19        13.2939   -4.8499  -27.6737 H           1 MOL       0.0446
     71 H20        14.5362   -5.3303  -26.5570 H           1 MOL       0.0446
     72 H21        12.9873   -2.3453  -28.1717 H           1 MOL       0.0530
     73 H22        14.2304   -0.4624  -29.0253 H           1 MOL       0.0525
     74 H23        17.6345   -0.3932  -29.0367 H           1 MOL       0.2458
     75 H24        17.7600   -2.0288  -27.3448 H           1 MOL       0.0525
     76 H25        16.5330   -3.9302  -26.5183 H           1 MOL       0.0530
     77 H26        15.5978   -6.4604  -21.3602 H           1 MOL       0.0495
     78 H27        14.0712   -6.7277  -22.1568 H           1 MOL       0.0495
     79 H28        15.6667   -4.1975  -21.9625 H           1 MOL       0.0581
     80 H29        13.0062   -5.1974  -20.9922 H           1 MOL       0.0513
     81 H30        12.8961   -3.6030  -21.6638 H           1 MOL       0.0513
     82 H31        15.2269   -2.0235  -20.6022 H           1 MOL       0.0289
     83 H32        16.2684   -0.2174  -19.5441 H           1 MOL       0.0616
     84 H33        17.3040    1.6108  -18.3902 H           1 MOL       0.0615
     85 H34        17.2072    1.7461  -15.9681 H           1 MOL       0.0610
     86 H35        16.0712    0.0129  -14.7051 H           1 MOL       0.0615
     87 H36        15.0625   -1.8524  -15.8319 H           1 MOL       0.0616
@<TRIPOS>BOND
     1     1     2  ar
     2     6     1  ar
     3     2     3  ar
     4     4     3  ar
     5     5     4  ar
     6     6     5  ar
     7     7     6   1
     8     8     7   1
     9     9     8   1
    10     9    10   2
    11    11     9  am
    12    12    11   1
    13    12    13   1
    14    20    12   1
    15    13    14   1
    16    14    15  ar
    17    14    19  ar
    18    15    16  ar
    19    16    17  ar
    20    18    17  ar
    21    19    18  ar
    22    20    21  ar
    23    20    22  ar
    24    36    20   1
    25    23    24   1
    26    38    23  am
    27    24    25   1
    28    24    28   1
    29    25    26  ar
    30    25    27  ar
    31    28    29   1
    32    29    30  ar
    33    29    35  ar
    34    30    31  ar
    35    31    32  ar
    36    32    33   1
    37    34    32  ar
    38    35    34  ar
    39    37    36   1
    40    37    38   1
    41    37    40   1
    42    38    39   2
    43    40    41   1
    44    41    42   2
    45    41    43   1
    46    42    45   1
    47    43    44   1
    48    44    45   2
    49    45    46   1
    50    46    47  ar
    51    46    51  ar
    52    47    48  ar
    53    48    49  ar
    54    49    50  ar
    55    50    51  ar
    56     1    52   1
    57     2    53   1
    58     3    54   1
    59     4    55   1
    60     5    56   1
    61     7    57   1
    62     7    58   1
    63    11    59   1
    64    12    60   1
    65    13    61   1
    66    13    62   1
    67    15    63   1
    68    16    64   1
    69    17    65   1
    70    18    66   1
    71    19    67   1
    72    23    68   1
    73    24    69   1
    74    28    70   1
    75    28    71   1
    76    30    72   1
    77    31    73   1
    78    33    74   1
    79    34    75   1
    80    35    76   1
    81    36    77   1
    82    36    78   1
    83    37    79   1
    84    40    80   1
    85    40    81   1
    86    42    82   1
    87    47    83   1
    88    48    84   1
    89    49    85   1
    90    50    86   1
    91    51    87   1
@<TRIPOS>SUBSTRUCTURE
     1  MOL      1

