@<TRIPOS>MOLECULE
2xy9_ligand_000
    87    91
SMALL
GAST_HUCK
****
This file was generated by PARSER (from files_GN.cpp)

@<TRIPOS>ATOM
      1 CAQ        11.8400   -6.3162  -15.2749 C.ar        1 MOL      -0.0578
      2 CAK        12.3017   -6.9433  -14.1033 C.ar        1 MOL      -0.0685
      3 CAH        12.5920   -6.1730  -12.9640 C.ar        1 MOL      -0.0687
      4 CAL        12.4053   -4.7805  -12.9884 C.ar        1 MOL      -0.0685
      5 CAR        11.9427   -4.1532  -14.1577 C.ar        1 MOL      -0.0578
      6 CBP        11.6571   -4.9134  -15.3138 C.ar        1 MOL      -0.0130
      7 CBB        11.2208   -4.2560  -16.5641 C.3         1 MOL       0.1113
      8 OBJ        12.2645   -4.4359  -17.5259 O.3         1 MOL      -0.2506
      9 CBM        13.0457   -3.4907  -18.1088 C.2         1 MOL       0.3232
     10 OAB        12.8671   -2.1723  -17.8483 O.2         1 MOL      -0.3774
     11 NBI        14.0005   -3.9209  -18.9659 N.am        1 MOL      -0.2418
     12 CBX        14.8719   -3.0701  -19.7324 C.3         1 MOL       0.1176
     13 CBE        16.0912   -2.5607  -18.8746 C.3         1 MOL       0.0205
     14 CBQ        16.2586   -1.0893  -18.5926 C.ar        1 MOL      -0.0393
     15 CAS        17.3655   -0.6874  -17.7968 C.ar        1 MOL      -0.0602
     16 CAM        17.6569    0.6682  -17.5578 C.ar        1 MOL      -0.0686
     17 CAI        16.8387    1.6676  -18.1109 C.ar        1 MOL      -0.0687
     18 CAN        15.7483    1.3079  -18.9160 C.ar        1 MOL      -0.0686
     19 CAT        15.4830   -0.0568  -19.1776 C.ar        1 MOL      -0.0602
     20 PBY        15.2326   -3.8121  -21.1996 P.3         1 MOL       0.0154
     21 OAG        16.3045   -3.0954  -21.8390 O.co2       1 MOL      -0.6174
     22 OAD        14.1130   -3.4542  -22.0317 O.co2       1 MOL      -0.6174
     23 N          13.6330   -5.5931  -23.9569 N.am        1 MOL      -0.2694
     24 CA         12.7683   -4.9737  -24.9248 C.3         1 MOL       0.1024
     25 C          12.3702   -5.9687  -25.9363 C.2         1 MOL       0.0619
     26 OXT        11.1094   -5.9591  -26.4253 O.co2       1 MOL      -0.5665
     27 O          13.2963   -6.7224  -26.5628 O.co2       1 MOL      -0.5665
     28 CB         13.1471   -3.5596  -25.4948 C.3         1 MOL       0.0108
     29 CG         14.1797   -3.4380  -26.5712 C.ar        1 MOL      -0.0499
     30 CD1        13.9321   -3.9514  -27.8666 C.ar        1 MOL      -0.0686
     31 CE1        14.9297   -3.9250  -28.8590 C.ar        1 MOL      -0.0398
     32 CZ         16.1894   -3.3621  -28.5820 C.ar        1 MOL       0.0805
     33 OH         17.1669   -3.4193  -29.5231 O.3         1 MOL      -0.3376
     34 CE2        16.4195   -2.7628  -27.3294 C.ar        1 MOL      -0.0398
     35 CD2        15.4151   -2.7795  -26.3429 C.ar        1 MOL      -0.0686
     36 CBF        15.3755   -5.4861  -21.3230 C.3         1 MOL       0.0375
     37 CBV        15.6466   -6.1565  -22.7320 C.3         1 MOL       0.0788
     38 CBN        14.9479   -5.4700  -23.8216 C.2         1 MOL       0.1848
     39 OAC        15.5682   -4.7017  -24.5376 O.2         1 MOL      -0.3964
     40 CBC        17.1814   -6.4301  -22.9679 C.3         1 MOL       0.0422
     41 CBS        17.6309   -6.8439  -24.3216 C.2         1 MOL       0.1411
     42 CBA        16.9171   -7.4488  -25.3491 C.2         1 MOL      -0.0269
     43 OBK        18.8051   -6.4353  -24.8504 O.3         1 MOL      -0.1670
     44 NBG        18.8343   -6.7226  -26.1243 N.2         1 MOL      -0.1519
     45 CBU        17.6862   -7.3164  -26.5045 C.2         1 MOL       0.0430
     46 CBT        17.3362   -7.5783  -27.8608 C.ar        1 MOL      -0.0150
     47 CAU        15.9966   -7.8327  -28.2488 C.ar        1 MOL      -0.0551
     48 CAO        15.6371   -7.9409  -29.6045 C.ar        1 MOL      -0.0621
     49 CAJ        16.6178   -7.8240  -30.6030 C.ar        1 MOL      -0.0626
     50 CAP        17.9593   -7.6139  -30.2426 C.ar        1 MOL      -0.0621
     51 CAV        18.3142   -7.4934  -28.8849 C.ar        1 MOL      -0.0551
     52 H1         11.6413   -6.8894  -16.0998 H           1 MOL       0.0557
     53 H2         12.4365   -7.9566  -14.0822 H           1 MOL       0.0599
     54 H3         12.9530   -6.6235  -12.1234 H           1 MOL       0.0559
     55 H4         12.6147   -4.2210  -12.1598 H           1 MOL       0.0599
     56 H5         11.8273   -3.1371  -14.1614 H           1 MOL       0.0557
     57 H6         10.9981   -3.1982  -16.4129 H           1 MOL       0.0776
     58 H7         10.3113   -4.7246  -16.9367 H           1 MOL       0.0776
     59 H8         14.1098   -4.8843  -19.0562 H           1 MOL       0.1888
     60 H9         14.2813   -2.2098  -20.0188 H           1 MOL       0.0787
     61 H10        17.0374   -2.8752  -19.3252 H           1 MOL       0.0465
     62 H11        16.0514   -3.0847  -17.9101 H           1 MOL       0.0465
     63 H12        17.9923   -1.3854  -17.3959 H           1 MOL       0.0557
     64 H13        18.4666    0.9299  -16.9900 H           1 MOL       0.0599
     65 H14        17.0545    2.6582  -17.9505 H           1 MOL       0.0559
     66 H15        15.1638    2.0360  -19.3363 H           1 MOL       0.0599
     67 H16        14.7218   -0.2513  -19.8203 H           1 MOL       0.0557
     68 H17        13.1946   -6.1768  -23.3117 H           1 MOL       0.1876
     69 H18        11.8648   -4.7919  -24.3409 H           1 MOL       0.0747
     70 H19        13.4508   -2.9633  -24.6357 H           1 MOL       0.0446
     71 H20        12.2386   -3.0909  -25.8827 H           1 MOL       0.0446
     72 H21        13.0236   -4.3600  -28.0953 H           1 MOL       0.0530
     73 H22        14.7408   -4.3382  -29.7756 H           1 MOL       0.0525
     74 H23        17.8037   -2.7034  -29.3125 H           1 MOL       0.2458
     75 H24        17.3277   -2.3376  -27.1226 H           1 MOL       0.0525
     76 H25        15.6222   -2.3659  -25.4288 H           1 MOL       0.0530
     77 H26        14.4398   -5.9056  -20.9357 H           1 MOL       0.0495
     78 H27        16.1642   -5.7936  -20.6318 H           1 MOL       0.0495
     79 H28        15.2006   -7.1576  -22.6919 H           1 MOL       0.0581
     80 H29        17.5180   -7.1961  -22.2682 H           1 MOL       0.0513
     81 H30        17.7245   -5.5147  -22.7276 H           1 MOL       0.0513
     82 H31        15.9605   -7.8025  -25.2850 H           1 MOL       0.0289
     83 H32        15.2577   -7.9147  -27.5514 H           1 MOL       0.0616
     84 H33        14.6593   -8.0898  -29.8646 H           1 MOL       0.0615
     85 H34        16.3555   -7.8912  -31.5904 H           1 MOL       0.0610
     86 H35        18.6755   -7.5317  -30.9673 H           1 MOL       0.0615
     87 H36        19.2970   -7.3286  -28.6549 H           1 MOL       0.0616
@<TRIPOS>BOND
     1     1     2  ar
     2     6     1  ar
     3     2     3  ar
     4     4     3  ar
     5     5     4  ar
     6     6     5  ar
     7     7     6   1
     8     8     7   1
     9     9     8   1
    10     9    10   2
    11    11     9  am
    12    12    11   1
    13    12    13   1
    14    20    12   1
    15    13    14   1
    16    14    15  ar
    17    14    19  ar
    18    15    16  ar
    19    16    17  ar
    20    18    17  ar
    21    19    18  ar
    22    20    21  ar
    23    20    22  ar
    24    36    20   1
    25    23    24   1
    26    38    23  am
    27    24    25   1
    28    24    28   1
    29    25    26  ar
    30    25    27  ar
    31    28    29   1
    32    29    30  ar
    33    29    35  ar
    34    30    31  ar
    35    31    32  ar
    36    32    33   1
    37    34    32  ar
    38    35    34  ar
    39    37    36   1
    40    37    38   1
    41    37    40   1
    42    38    39   2
    43    40    41   1
    44    41    42   2
    45    41    43   1
    46    42    45   1
    47    43    44   1
    48    44    45   2
    49    45    46   1
    50    46    47  ar
    51    46    51  ar
    52    47    48  ar
    53    48    49  ar
    54    49    50  ar
    55    50    51  ar
    56     1    52   1
    57     2    53   1
    58     3    54   1
    59     4    55   1
    60     5    56   1
    61     7    57   1
    62     7    58   1
    63    11    59   1
    64    12    60   1
    65    13    61   1
    66    13    62   1
    67    15    63   1
    68    16    64   1
    69    17    65   1
    70    18    66   1
    71    19    67   1
    72    23    68   1
    73    24    69   1
    74    28    70   1
    75    28    71   1
    76    30    72   1
    77    31    73   1
    78    33    74   1
    79    34    75   1
    80    35    76   1
    81    36    77   1
    82    36    78   1
    83    37    79   1
    84    40    80   1
    85    40    81   1
    86    42    82   1
    87    47    83   1
    88    48    84   1
    89    49    85   1
    90    50    86   1
    91    51    87   1
@<TRIPOS>SUBSTRUCTURE
     1  MOL      1

