@<TRIPOS>MOLECULE
2xy9_ligand_022
    87    91
SMALL
GAST_HUCK
****
This file was generated by PARSER (from files_GN.cpp)

@<TRIPOS>ATOM
      1 CAQ         9.7501   -0.9761  -14.9244 C.ar        1 MOL      -0.0578
      2 CAK         8.3494   -1.1057  -14.9605 C.ar        1 MOL      -0.0685
      3 CAH         7.5897   -0.3065  -15.8329 C.ar        1 MOL      -0.0687
      4 CAL         8.2303    0.6232  -16.6701 C.ar        1 MOL      -0.0685
      5 CAR         9.6300    0.7634  -16.6246 C.ar        1 MOL      -0.0578
      6 CBP        10.4065   -0.0345  -15.7500 C.ar        1 MOL      -0.0130
      7 CBB        11.8845    0.0956  -15.6931 C.3         1 MOL       0.1113
      8 OBJ        12.5415   -0.9695  -16.3957 O.3         1 MOL      -0.2506
      9 CBM        12.5686   -1.1404  -17.7440 C.2         1 MOL       0.3232
     10 OAB        11.9336   -0.2640  -18.5600 O.2         1 MOL      -0.3774
     11 NBI        13.3297   -2.1351  -18.2518 N.am        1 MOL      -0.2418
     12 CBX        13.6760   -2.2548  -19.6442 C.3         1 MOL       0.1176
     13 CBE        14.4611   -0.9905  -20.1671 C.3         1 MOL       0.0205
     14 CBQ        15.4046   -0.3268  -19.2174 C.ar        1 MOL      -0.0393
     15 CAS        15.2675    1.0503  -18.9027 C.ar        1 MOL      -0.0602
     16 CAM        16.1550    1.6847  -18.0128 C.ar        1 MOL      -0.0686
     17 CAI        17.1885    0.9482  -17.4123 C.ar        1 MOL      -0.0687
     18 CAN        17.3445   -0.4163  -17.7215 C.ar        1 MOL      -0.0686
     19 CAT        16.4665   -1.0472  -18.6248 C.ar        1 MOL      -0.0602
     20 PBY        14.3790   -3.7489  -19.9610 P.3         1 MOL       0.0154
     21 OAG        13.3775   -4.7447  -19.6638 O.co2       1 MOL      -0.6174
     22 OAD        15.4767   -3.9953  -19.0613 O.co2       1 MOL      -0.6174
     23 N          13.1698   -4.6699  -24.0306 N.am        1 MOL      -0.2694
     24 CA         12.5904   -4.4625  -25.3236 C.3         1 MOL       0.1024
     25 C          12.2842   -5.7680  -25.9481 C.2         1 MOL       0.0619
     26 OXT        11.0650   -5.9876  -26.4905 O.co2       1 MOL      -0.5665
     27 O          13.1831   -6.7783  -25.9740 O.co2       1 MOL      -0.5665
     28 CB         13.3378   -3.4175  -26.2257 C.3         1 MOL       0.0108
     29 CG         13.9412   -3.9019  -27.5040 C.ar        1 MOL      -0.0499
     30 CD1        13.1471   -4.5964  -28.4510 C.ar        1 MOL      -0.0686
     31 CE1        13.6912   -5.0404  -29.6719 C.ar        1 MOL      -0.0398
     32 CZ         15.0377   -4.7743  -29.9782 C.ar        1 MOL       0.0805
     33 OH         15.5736   -5.1862  -31.1558 O.3         1 MOL      -0.3376
     34 CE2        15.8374   -4.0693  -29.0549 C.ar        1 MOL      -0.0398
     35 CD2        15.2942   -3.6417  -27.8281 C.ar        1 MOL      -0.0686
     36 CBF        14.8534   -3.8936  -21.5605 C.3         1 MOL       0.0375
     37 CBV        14.7233   -5.2765  -22.2971 C.3         1 MOL       0.0788
     38 CBN        14.4069   -5.0398  -23.7112 C.2         1 MOL       0.1848
     39 OAC        15.2678   -5.1342  -24.5783 O.2         1 MOL      -0.3964
     40 CBC        15.9596   -6.2032  -22.0468 C.3         1 MOL       0.0422
     41 CBS        15.9007   -7.5134  -22.7395 C.2         1 MOL       0.1411
     42 CBA        14.9298   -8.5036  -22.6554 C.2         1 MOL      -0.0269
     43 OBK        16.8111   -7.9269  -23.6536 O.3         1 MOL      -0.1670
     44 NBG        16.4531   -9.0916  -24.1242 N.2         1 MOL      -0.1519
     45 CBU        15.3006   -9.5031  -23.5546 C.2         1 MOL       0.0430
     46 CBT        14.6430  -10.7320  -23.8623 C.ar        1 MOL      -0.0150
     47 CAU        13.5493  -11.2115  -23.0961 C.ar        1 MOL      -0.0551
     48 CAO        12.9188  -12.4282  -23.4171 C.ar        1 MOL      -0.0621
     49 CAJ        13.3705  -13.1915  -24.5067 C.ar        1 MOL      -0.0626
     50 CAP        14.4501  -12.7337  -25.2802 C.ar        1 MOL      -0.0621
     51 CAV        15.0800  -11.5183  -24.9599 C.ar        1 MOL      -0.0551
     52 H1         10.2864   -1.5633  -14.2816 H           1 MOL       0.0557
     53 H2          7.8820   -1.7808  -14.3494 H           1 MOL       0.0599
     54 H3          6.5740   -0.4023  -15.8565 H           1 MOL       0.0559
     55 H4          7.6805    1.2002  -17.3083 H           1 MOL       0.0599
     56 H5         10.0804    1.4462  -17.2414 H           1 MOL       0.0557
     57 H6         12.2088    0.0699  -14.6524 H           1 MOL       0.0776
     58 H7         12.2205    1.0534  -16.1051 H           1 MOL       0.0776
     59 H8         13.7392   -2.7529  -17.6215 H           1 MOL       0.1888
     60 H9         12.7298   -2.2909  -20.1993 H           1 MOL       0.0787
     61 H10        13.7079   -0.2684  -20.4868 H           1 MOL       0.0465
     62 H11        15.0246   -1.2150  -21.0736 H           1 MOL       0.0465
     63 H12        14.5119    1.6090  -19.3231 H           1 MOL       0.0557
     64 H13        16.0459    2.6766  -17.8050 H           1 MOL       0.0599
     65 H14        17.8283    1.3990  -16.7558 H           1 MOL       0.0559
     66 H15        18.1092   -0.9528  -17.2951 H           1 MOL       0.0599
     67 H16        16.6205   -2.0279  -18.8553 H           1 MOL       0.0557
     68 H17        12.5484   -4.5599  -23.2849 H           1 MOL       0.1876
     69 H18        11.6242   -4.0072  -25.0971 H           1 MOL       0.0747
     70 H19        14.0982   -2.9173  -25.6227 H           1 MOL       0.0446
     71 H20        12.6337   -2.6273  -26.5020 H           1 MOL       0.0446
     72 H21        12.1602   -4.7948  -28.2497 H           1 MOL       0.0530
     73 H22        13.1078   -5.5490  -30.3349 H           1 MOL       0.0525
     74 H23        14.9759   -4.8301  -31.8544 H           1 MOL       0.2458
     75 H24        16.8157   -3.8589  -29.2842 H           1 MOL       0.0525
     76 H25        15.8963   -3.1359  -27.1775 H           1 MOL       0.0530
     77 H26        15.8893   -3.5402  -21.6354 H           1 MOL       0.0495
     78 H27        14.2539   -3.1551  -22.0980 H           1 MOL       0.0495
     79 H28        13.8696   -5.8142  -21.8841 H           1 MOL       0.0581
     80 H29        16.0681   -6.3971  -20.9751 H           1 MOL       0.0513
     81 H30        16.8700   -5.6965  -22.3834 H           1 MOL       0.0513
     82 H31        14.0951   -8.4753  -22.0714 H           1 MOL       0.0289
     83 H32        13.2052  -10.6877  -22.2879 H           1 MOL       0.0616
     84 H33        12.1349  -12.7625  -22.8543 H           1 MOL       0.0615
     85 H34        12.9137  -14.0767  -24.7385 H           1 MOL       0.0610
     86 H35        14.7794  -13.2858  -26.0742 H           1 MOL       0.0615
     87 H36        15.8614  -11.2114  -25.5436 H           1 MOL       0.0616
@<TRIPOS>BOND
     1     1     2  ar
     2     6     1  ar
     3     2     3  ar
     4     4     3  ar
     5     5     4  ar
     6     6     5  ar
     7     7     6   1
     8     8     7   1
     9     9     8   1
    10     9    10   2
    11    11     9  am
    12    12    11   1
    13    12    13   1
    14    20    12   1
    15    13    14   1
    16    14    15  ar
    17    14    19  ar
    18    15    16  ar
    19    16    17  ar
    20    18    17  ar
    21    19    18  ar
    22    20    21  ar
    23    20    22  ar
    24    36    20   1
    25    23    24   1
    26    38    23  am
    27    24    25   1
    28    24    28   1
    29    25    26  ar
    30    25    27  ar
    31    28    29   1
    32    29    30  ar
    33    29    35  ar
    34    30    31  ar
    35    31    32  ar
    36    32    33   1
    37    34    32  ar
    38    35    34  ar
    39    37    36   1
    40    37    38   1
    41    37    40   1
    42    38    39   2
    43    40    41   1
    44    41    42   2
    45    41    43   1
    46    42    45   1
    47    43    44   1
    48    44    45   2
    49    45    46   1
    50    46    47  ar
    51    46    51  ar
    52    47    48  ar
    53    48    49  ar
    54    49    50  ar
    55    50    51  ar
    56     1    52   1
    57     2    53   1
    58     3    54   1
    59     4    55   1
    60     5    56   1
    61     7    57   1
    62     7    58   1
    63    11    59   1
    64    12    60   1
    65    13    61   1
    66    13    62   1
    67    15    63   1
    68    16    64   1
    69    17    65   1
    70    18    66   1
    71    19    67   1
    72    23    68   1
    73    24    69   1
    74    28    70   1
    75    28    71   1
    76    30    72   1
    77    31    73   1
    78    33    74   1
    79    34    75   1
    80    35    76   1
    81    36    77   1
    82    36    78   1
    83    37    79   1
    84    40    80   1
    85    40    81   1
    86    42    82   1
    87    47    83   1
    88    48    84   1
    89    49    85   1
    90    50    86   1
    91    51    87   1
@<TRIPOS>SUBSTRUCTURE
     1  MOL      1

