@<TRIPOS>MOLECULE
2xy9_ligand_029
    87    91
SMALL
GAST_HUCK
****
This file was generated by PARSER (from files_GN.cpp)

@<TRIPOS>ATOM
      1 CAQ        14.7558  -12.3260  -27.5752 C.ar        1 MOL      -0.0578
      2 CAK        14.3644  -13.5393  -26.9773 C.ar        1 MOL      -0.0685
      3 CAH        15.2053  -14.1624  -26.0374 C.ar        1 MOL      -0.0687
      4 CAL        16.4472  -13.5851  -25.7098 C.ar        1 MOL      -0.0685
      5 CAR        16.8461  -12.3834  -26.3219 C.ar        1 MOL      -0.0578
      6 CBP        16.0084  -11.7416  -27.2662 C.ar        1 MOL      -0.0130
      7 CBB        16.4363  -10.4530  -27.8652 C.3         1 MOL       0.1113
      8 OBJ        16.7183   -9.5161  -26.8224 O.3         1 MOL      -0.2506
      9 CBM        15.8374   -9.0815  -25.8863 C.2         1 MOL       0.3232
     10 OAB        14.5306   -9.4394  -25.9351 O.2         1 MOL      -0.3774
     11 NBI        16.3197   -8.3033  -24.8987 N.am        1 MOL      -0.2418
     12 CBX        15.5480   -7.8004  -23.8032 C.3         1 MOL       0.1176
     13 CBE        14.8929   -8.9273  -22.9147 C.3         1 MOL       0.0205
     14 CBQ        15.5565  -10.2717  -22.8940 C.ar        1 MOL      -0.0393
     15 CAS        14.8160  -11.4478  -23.1946 C.ar        1 MOL      -0.0602
     16 CAM        15.4265  -12.7141  -23.1333 C.ar        1 MOL      -0.0686
     17 CAI        16.7759  -12.8318  -22.7502 C.ar        1 MOL      -0.0687
     18 CAN        17.5100  -11.6762  -22.4242 C.ar        1 MOL      -0.0686
     19 CAT        16.9142  -10.4020  -22.5131 C.ar        1 MOL      -0.0602
     20 PBY        16.4618   -6.6685  -22.9693 P.3         1 MOL       0.0154
     21 OAG        17.0637   -5.7401  -23.8974 O.co2       1 MOL      -0.6174
     22 OAD        17.5857   -7.3429  -22.3607 O.co2       1 MOL      -0.6174
     23 N          13.7957   -4.7737  -23.8780 N.am        1 MOL      -0.2694
     24 CA         12.7435   -4.4728  -24.8252 C.3         1 MOL       0.1024
     25 C          12.0712   -5.7082  -25.2741 C.2         1 MOL       0.0619
     26 OXT        11.0564   -5.6486  -26.1635 O.co2       1 MOL      -0.5665
     27 O          12.4593   -6.9317  -24.8541 O.co2       1 MOL      -0.5665
     28 CB         13.1349   -3.5787  -26.0520 C.3         1 MOL       0.0108
     29 CG         13.7965   -4.2697  -27.1914 C.ar        1 MOL      -0.0499
     30 CD1        13.0452   -4.7024  -28.3138 C.ar        1 MOL      -0.0686
     31 CE1        13.6779   -5.2930  -29.4214 C.ar        1 MOL      -0.0398
     32 CZ         15.0750   -5.4911  -29.4079 C.ar        1 MOL       0.0805
     33 OH         15.6863   -6.0402  -30.4973 O.3         1 MOL      -0.3376
     34 CE2        15.8318   -5.0889  -28.2865 C.ar        1 MOL      -0.0398
     35 CD2        15.1917   -4.4844  -27.1866 C.ar        1 MOL      -0.0686
     36 CBF        15.5560   -5.8618  -21.8179 C.3         1 MOL       0.0375
     37 CBV        15.2836   -4.3347  -21.9850 C.3         1 MOL       0.0788
     38 CBN        14.5843   -3.9345  -23.2207 C.2         1 MOL       0.1848
     39 OAC        14.6248   -2.7381  -23.5153 O.2         1 MOL      -0.3964
     40 CBC        14.4962   -3.7870  -20.7258 C.3         1 MOL       0.0422
     41 CBS        15.2836   -2.9084  -19.8386 C.2         1 MOL       0.1411
     42 CBA        15.3389   -1.5254  -19.8840 C.2         1 MOL      -0.0269
     43 OBK        16.0173   -3.2984  -18.7730 O.3         1 MOL      -0.1670
     44 NBG        16.5250   -2.2470  -18.1844 N.2         1 MOL      -0.1519
     45 CBU        16.1381   -1.1188  -18.8164 C.2         1 MOL       0.0430
     46 CBT        16.5007    0.2028  -18.4487 C.ar        1 MOL      -0.0150
     47 CAU        15.7922    1.3289  -18.9396 C.ar        1 MOL      -0.0551
     48 CAO        16.1886    2.6374  -18.6141 C.ar        1 MOL      -0.0621
     49 CAJ        17.2939    2.8459  -17.7716 C.ar        1 MOL      -0.0626
     50 CAP        17.9985    1.7429  -17.2605 C.ar        1 MOL      -0.0621
     51 CAV        17.6026    0.4342  -17.5861 C.ar        1 MOL      -0.0551
     52 H1         14.1208  -11.8709  -28.2365 H           1 MOL       0.0557
     53 H2         13.4595  -13.9550  -27.2079 H           1 MOL       0.0599
     54 H3         14.9160  -15.0296  -25.5819 H           1 MOL       0.0559
     55 H4         17.0570  -14.0438  -25.0283 H           1 MOL       0.0599
     56 H5         17.7491  -11.9718  -26.0676 H           1 MOL       0.0557
     57 H6         15.6818  -10.0377  -28.5429 H           1 MOL       0.0776
     58 H7         17.3507  -10.6209  -28.4411 H           1 MOL       0.0776
     59 H8         17.2704   -8.0931  -24.9247 H           1 MOL       0.1888
     60 H9         14.7408   -7.2128  -24.2458 H           1 MOL       0.0787
     61 H10        13.8545   -9.0372  -23.2539 H           1 MOL       0.0465
     62 H11        14.8122   -8.6063  -21.8725 H           1 MOL       0.0465
     63 H12        13.8200  -11.3870  -23.4649 H           1 MOL       0.0557
     64 H13        14.8791  -13.5494  -23.3513 H           1 MOL       0.0599
     65 H14        17.2151  -13.7610  -22.6961 H           1 MOL       0.0559
     66 H15        18.4860  -11.7648  -22.1244 H           1 MOL       0.0599
     67 H16        17.4699   -9.5787  -22.2685 H           1 MOL       0.0557
     68 H17        13.8173   -5.6901  -23.5792 H           1 MOL       0.1876
     69 H18        12.0044   -3.8952  -24.2576 H           1 MOL       0.0747
     70 H19        13.8027   -2.7737  -25.7071 H           1 MOL       0.0446
     71 H20        12.2277   -3.0612  -26.3976 H           1 MOL       0.0446
     72 H21        12.0344   -4.5754  -28.3388 H           1 MOL       0.0530
     73 H22        13.1370   -5.5630  -30.2368 H           1 MOL       0.0525
     74 H23        16.1361   -6.8642  -30.1738 H           1 MOL       0.2458
     75 H24        16.8481   -5.2116  -28.2883 H           1 MOL       0.0525
     76 H25        15.7570   -4.1758  -26.4080 H           1 MOL       0.0530
     77 H26        16.0590   -6.0087  -20.8598 H           1 MOL       0.0495
     78 H27        14.5865   -6.3599  -21.7292 H           1 MOL       0.0495
     79 H28        16.2743   -3.8544  -22.0197 H           1 MOL       0.0581
     80 H29        14.1405   -4.6148  -20.1051 H           1 MOL       0.0513
     81 H30        13.5936   -3.2409  -21.0070 H           1 MOL       0.0513
     82 H31        14.8677   -0.9318  -20.5720 H           1 MOL       0.0289
     83 H32        14.9685    1.2108  -19.5267 H           1 MOL       0.0616
     84 H33        15.6723    3.4385  -18.9851 H           1 MOL       0.0615
     85 H34        17.5799    3.7992  -17.5291 H           1 MOL       0.0610
     86 H35        18.8032    1.8986  -16.6503 H           1 MOL       0.0615
     87 H36        18.1416   -0.3464  -17.2033 H           1 MOL       0.0616
@<TRIPOS>BOND
     1     1     2  ar
     2     6     1  ar
     3     2     3  ar
     4     4     3  ar
     5     5     4  ar
     6     6     5  ar
     7     7     6   1
     8     8     7   1
     9     9     8   1
    10     9    10   2
    11    11     9  am
    12    12    11   1
    13    12    13   1
    14    20    12   1
    15    13    14   1
    16    14    15  ar
    17    14    19  ar
    18    15    16  ar
    19    16    17  ar
    20    18    17  ar
    21    19    18  ar
    22    20    21  ar
    23    20    22  ar
    24    36    20   1
    25    23    24   1
    26    38    23  am
    27    24    25   1
    28    24    28   1
    29    25    26  ar
    30    25    27  ar
    31    28    29   1
    32    29    30  ar
    33    29    35  ar
    34    30    31  ar
    35    31    32  ar
    36    32    33   1
    37    34    32  ar
    38    35    34  ar
    39    37    36   1
    40    37    38   1
    41    37    40   1
    42    38    39   2
    43    40    41   1
    44    41    42   2
    45    41    43   1
    46    42    45   1
    47    43    44   1
    48    44    45   2
    49    45    46   1
    50    46    47  ar
    51    46    51  ar
    52    47    48  ar
    53    48    49  ar
    54    49    50  ar
    55    50    51  ar
    56     1    52   1
    57     2    53   1
    58     3    54   1
    59     4    55   1
    60     5    56   1
    61     7    57   1
    62     7    58   1
    63    11    59   1
    64    12    60   1
    65    13    61   1
    66    13    62   1
    67    15    63   1
    68    16    64   1
    69    17    65   1
    70    18    66   1
    71    19    67   1
    72    23    68   1
    73    24    69   1
    74    28    70   1
    75    28    71   1
    76    30    72   1
    77    31    73   1
    78    33    74   1
    79    34    75   1
    80    35    76   1
    81    36    77   1
    82    36    78   1
    83    37    79   1
    84    40    80   1
    85    40    81   1
    86    42    82   1
    87    47    83   1
    88    48    84   1
    89    49    85   1
    90    50    86   1
    91    51    87   1
@<TRIPOS>SUBSTRUCTURE
     1  MOL      1

