@<TRIPOS>MOLECULE
2xy9_ligand_062
    87    91
SMALL
GAST_HUCK
****
This file was generated by PARSER (from files_GN.cpp)

@<TRIPOS>ATOM
      1 CAQ        14.5041    5.3819  -19.4302 C.ar        1 MOL      -0.0578
      2 CAK        14.2042    6.6019  -18.7974 C.ar        1 MOL      -0.0685
      3 CAH        14.9776    7.0411  -17.7082 C.ar        1 MOL      -0.0687
      4 CAL        16.0435    6.2523  -17.2417 C.ar        1 MOL      -0.0685
      5 CAR        16.3394    5.0274  -17.8689 C.ar        1 MOL      -0.0578
      6 CBP        15.5748    4.5805  -18.9745 C.ar        1 MOL      -0.0130
      7 CBB        15.9025    3.3173  -19.6807 C.3         1 MOL       0.1113
      8 OBJ        14.8851    2.3183  -19.5731 O.3         1 MOL      -0.2506
      9 CBM        14.3287    1.8096  -18.4436 C.2         1 MOL       0.3232
     10 OAB        14.6744    2.2957  -17.2204 O.2         1 MOL      -0.3774
     11 NBI        13.4718    0.7691  -18.5926 N.am        1 MOL      -0.2418
     12 CBX        12.9268   -0.0274  -17.5317 C.3         1 MOL       0.1176
     13 CBE        11.7515    0.7577  -16.8561 C.3         1 MOL       0.0205
     14 CBQ        11.2765    0.1758  -15.5710 C.ar        1 MOL      -0.0393
     15 CAS        12.0309    0.3355  -14.3828 C.ar        1 MOL      -0.0602
     16 CAM        11.5724   -0.1877  -13.1587 C.ar        1 MOL      -0.0686
     17 CAI        10.3521   -0.8893  -13.1072 C.ar        1 MOL      -0.0687
     18 CAN         9.5897   -1.0564  -14.2775 C.ar        1 MOL      -0.0686
     19 CAT        10.0475   -0.5247  -15.5007 C.ar        1 MOL      -0.0602
     20 PBY        12.5748   -1.5743  -18.1148 P.3         1 MOL       0.0154
     21 OAG        11.1478   -1.7311  -18.2934 O.co2       1 MOL      -0.6174
     22 OAD        12.8550   -2.5293  -17.0729 O.co2       1 MOL      -0.6174
     23 N          14.1820   -4.0767  -22.0112 N.am        1 MOL      -0.2694
     24 CA         14.5454   -3.9802  -23.4035 C.3         1 MOL       0.1024
     25 C          13.4966   -4.6383  -24.2097 C.2         1 MOL       0.0619
     26 OXT        13.4820   -5.9828  -24.3726 O.co2       1 MOL      -0.5665
     27 O          12.5234   -3.9136  -24.8082 O.co2       1 MOL      -0.5665
     28 CB         15.9568   -4.5909  -23.6766 C.3         1 MOL       0.0108
     29 CG         16.5631   -4.4624  -25.0366 C.ar        1 MOL      -0.0499
     30 CD1        17.8210   -5.0715  -25.2829 C.ar        1 MOL      -0.0686
     31 CE1        18.4638   -4.9439  -26.5262 C.ar        1 MOL      -0.0398
     32 CZ         17.8730   -4.1839  -27.5514 C.ar        1 MOL       0.0805
     33 OH         18.5066   -4.0644  -28.7452 O.3         1 MOL      -0.3376
     34 CE2        16.6301   -3.5582  -27.3211 C.ar        1 MOL      -0.0398
     35 CD2        15.9832   -3.6931  -26.0759 C.ar        1 MOL      -0.0686
     36 CBF        13.3298   -1.9995  -19.5616 C.3         1 MOL       0.0375
     37 CBV        14.1483   -3.3381  -19.6800 C.3         1 MOL       0.0788
     38 CBN        14.7568   -3.4024  -21.0146 C.2         1 MOL       0.1848
     39 OAC        15.7439   -2.7099  -21.2377 O.2         1 MOL      -0.3964
     40 CBC        15.2276   -3.5803  -18.5679 C.3         1 MOL       0.0422
     41 CBS        15.8920   -2.3657  -18.0523 C.2         1 MOL       0.1411
     42 CBA        15.7246   -1.7986  -16.7990 C.2         1 MOL      -0.0269
     43 OBK        16.6977   -1.5417  -18.7596 O.3         1 MOL      -0.1670
     44 NBG        17.0027   -0.5030  -18.0257 N.2         1 MOL      -0.1519
     45 CBU        16.4249   -0.5926  -16.8113 C.2         1 MOL       0.0430
     46 CBT        16.4482    0.4215  -15.8121 C.ar        1 MOL      -0.0150
     47 CAU        15.7138    0.3022  -14.6012 C.ar        1 MOL      -0.0551
     48 CAO        15.6875    1.3479  -13.6638 C.ar        1 MOL      -0.0621
     49 CAJ        16.3920    2.5368  -13.9132 C.ar        1 MOL      -0.0626
     50 CAP        17.1416    2.6703  -15.0963 C.ar        1 MOL      -0.0621
     51 CAV        17.1678    1.6222  -16.0345 C.ar        1 MOL      -0.0551
     52 H1         13.9402    5.0846  -20.2275 H           1 MOL       0.0557
     53 H2         13.4203    7.1712  -19.1312 H           1 MOL       0.0599
     54 H3         14.7596    7.9311  -17.2500 H           1 MOL       0.0559
     55 H4         16.6035    6.5695  -16.4473 H           1 MOL       0.0599
     56 H5         17.1229    4.4671  -17.5184 H           1 MOL       0.0557
     57 H6         16.8434    2.8872  -19.3297 H           1 MOL       0.0776
     58 H7         16.0298    3.5437  -20.7411 H           1 MOL       0.0776
     59 H8         13.3047    0.4674  -19.5007 H           1 MOL       0.1888
     60 H9         13.7042   -0.1643  -16.7763 H           1 MOL       0.0787
     61 H10        10.9125    0.8586  -17.5489 H           1 MOL       0.0465
     62 H11        12.0803    1.7820  -16.6556 H           1 MOL       0.0465
     63 H12        12.9162    0.8442  -14.3961 H           1 MOL       0.0557
     64 H13        12.1214   -0.0590  -12.3068 H           1 MOL       0.0599
     65 H14        10.0178   -1.2719  -12.2190 H           1 MOL       0.0559
     66 H15         8.7000   -1.5594  -14.2392 H           1 MOL       0.0599
     67 H16         9.4722   -0.6479  -16.3380 H           1 MOL       0.0557
     68 H17        13.3941   -4.6076  -21.7916 H           1 MOL       0.1876
     69 H18        14.5574   -2.9159  -23.6714 H           1 MOL       0.0747
     70 H19        15.9051   -5.6529  -23.4099 H           1 MOL       0.0446
     71 H20        16.6749   -4.1430  -22.9878 H           1 MOL       0.0446
     72 H21        18.2804   -5.6200  -24.5458 H           1 MOL       0.0530
     73 H22        19.3671   -5.3988  -26.6780 H           1 MOL       0.0525
     74 H23        18.5387   -3.0995  -28.9386 H           1 MOL       0.2458
     75 H24        16.2010   -3.0003  -28.0625 H           1 MOL       0.0525
     76 H25        15.0914   -3.2132  -25.9316 H           1 MOL       0.0530
     77 H26        14.0001   -1.1831  -19.8417 H           1 MOL       0.0495
     78 H27        12.5475   -2.0198  -20.3264 H           1 MOL       0.0495
     79 H28        13.4252   -4.1577  -19.5992 H           1 MOL       0.0581
     80 H29        16.0112   -4.2571  -18.9283 H           1 MOL       0.0513
     81 H30        14.7408   -4.0873  -17.7315 H           1 MOL       0.0513
     82 H31        15.1474   -2.1748  -16.0483 H           1 MOL       0.0289
     83 H32        15.1853   -0.5440  -14.3872 H           1 MOL       0.0616
     84 H33        15.1506    1.2459  -12.7994 H           1 MOL       0.0615
     85 H34        16.3699    3.3006  -13.2344 H           1 MOL       0.0610
     86 H35        17.6622    3.5296  -15.2770 H           1 MOL       0.0615
     87 H36        17.7222    1.7516  -16.8881 H           1 MOL       0.0616
@<TRIPOS>BOND
     1     1     2  ar
     2     6     1  ar
     3     2     3  ar
     4     4     3  ar
     5     5     4  ar
     6     6     5  ar
     7     7     6   1
     8     8     7   1
     9     9     8   1
    10     9    10   2
    11    11     9  am
    12    12    11   1
    13    12    13   1
    14    20    12   1
    15    13    14   1
    16    14    15  ar
    17    14    19  ar
    18    15    16  ar
    19    16    17  ar
    20    18    17  ar
    21    19    18  ar
    22    20    21  ar
    23    20    22  ar
    24    36    20   1
    25    23    24   1
    26    38    23  am
    27    24    25   1
    28    24    28   1
    29    25    26  ar
    30    25    27  ar
    31    28    29   1
    32    29    30  ar
    33    29    35  ar
    34    30    31  ar
    35    31    32  ar
    36    32    33   1
    37    34    32  ar
    38    35    34  ar
    39    37    36   1
    40    37    38   1
    41    37    40   1
    42    38    39   2
    43    40    41   1
    44    41    42   2
    45    41    43   1
    46    42    45   1
    47    43    44   1
    48    44    45   2
    49    45    46   1
    50    46    47  ar
    51    46    51  ar
    52    47    48  ar
    53    48    49  ar
    54    49    50  ar
    55    50    51  ar
    56     1    52   1
    57     2    53   1
    58     3    54   1
    59     4    55   1
    60     5    56   1
    61     7    57   1
    62     7    58   1
    63    11    59   1
    64    12    60   1
    65    13    61   1
    66    13    62   1
    67    15    63   1
    68    16    64   1
    69    17    65   1
    70    18    66   1
    71    19    67   1
    72    23    68   1
    73    24    69   1
    74    28    70   1
    75    28    71   1
    76    30    72   1
    77    31    73   1
    78    33    74   1
    79    34    75   1
    80    35    76   1
    81    36    77   1
    82    36    78   1
    83    37    79   1
    84    40    80   1
    85    40    81   1
    86    42    82   1
    87    47    83   1
    88    48    84   1
    89    49    85   1
    90    50    86   1
    91    51    87   1
@<TRIPOS>SUBSTRUCTURE
     1  MOL      1

