@<TRIPOS>MOLECULE
2xy9_ligand_049
    87    91
SMALL
GAST_HUCK
****
This file was generated by PARSER (from files_GN.cpp)

@<TRIPOS>ATOM
      1 CAQ        10.4903  -12.0613  -21.7545 C.ar        1 MOL      -0.0578
      2 CAK        10.1847  -11.7610  -20.4126 C.ar        1 MOL      -0.0685
      3 CAH        10.1789  -12.7784  -19.4417 C.ar        1 MOL      -0.0687
      4 CAL        10.4190  -14.1078  -19.8247 C.ar        1 MOL      -0.0685
      5 CAR        10.7070  -14.4093  -21.1691 C.ar        1 MOL      -0.0578
      6 CBP        10.7656  -13.3884  -22.1508 C.ar        1 MOL      -0.0130
      7 CBB        11.0652  -13.7089  -23.5740 C.3         1 MOL       0.1113
      8 OBJ        11.9202  -12.7839  -24.2717 O.3         1 MOL      -0.2506
      9 CBM        13.2457  -12.5426  -24.0789 C.2         1 MOL       0.3232
     10 OAB        13.8987  -13.1195  -23.0412 O.2         1 MOL      -0.3774
     11 NBI        13.8953  -11.7709  -24.9802 N.am        1 MOL      -0.2418
     12 CBX        15.2944  -11.4264  -24.9271 C.3         1 MOL       0.1176
     13 CBE        16.1578  -12.5819  -25.5261 C.3         1 MOL       0.0205
     14 CBQ        16.1253  -13.8281  -24.7053 C.ar        1 MOL      -0.0393
     15 CAS        15.1334  -14.8119  -24.9329 C.ar        1 MOL      -0.0602
     16 CAM        15.0710  -15.9707  -24.1363 C.ar        1 MOL      -0.0686
     17 CAI        16.0030  -16.1658  -23.1014 C.ar        1 MOL      -0.0687
     18 CAN        16.9996  -15.2019  -22.8696 C.ar        1 MOL      -0.0686
     19 CAT        17.0564  -14.0381  -23.6595 C.ar        1 MOL      -0.0602
     20 PBY        15.5443   -9.9403  -25.6627 P.3         1 MOL       0.0154
     21 OAG        16.6428   -9.2295  -25.0422 O.co2       1 MOL      -0.6174
     22 OAD        14.3721   -9.1474  -25.3452 O.co2       1 MOL      -0.6174
     23 N          14.8077   -6.9427  -26.7367 N.am        1 MOL      -0.2694
     24 CA         13.8044   -6.0368  -26.2395 C.3         1 MOL       0.1024
     25 C          12.6750   -6.8271  -25.6859 C.2         1 MOL       0.0619
     26 OXT        12.8059   -7.3785  -24.4582 O.co2       1 MOL      -0.5665
     27 O          11.4179   -6.7535  -26.1758 O.co2       1 MOL      -0.5665
     28 CB         13.3898   -4.8938  -27.2285 C.3         1 MOL       0.0108
     29 CG         14.3647   -3.7749  -27.4335 C.ar        1 MOL      -0.0499
     30 CD1        13.9044   -2.5417  -27.9613 C.ar        1 MOL      -0.0686
     31 CE1        14.7752   -1.4532  -28.1474 C.ar        1 MOL      -0.0398
     32 CZ         16.1330   -1.5727  -27.8074 C.ar        1 MOL       0.0805
     33 OH         16.9540   -0.5072  -27.9578 O.3         1 MOL      -0.3376
     34 CE2        16.6207   -2.7975  -27.3151 C.ar        1 MOL      -0.0398
     35 CD2        15.7484   -3.8880  -27.1401 C.ar        1 MOL      -0.0686
     36 CBF        15.6540   -9.9763  -27.3298 C.3         1 MOL       0.0375
     37 CBV        15.8714   -8.6447  -28.1356 C.3         1 MOL       0.0788
     38 CBN        14.8296   -7.6372  -27.8720 C.2         1 MOL       0.1848
     39 OAC        13.9272   -7.4841  -28.6886 O.2         1 MOL      -0.3964
     40 CBC        17.3396   -8.0912  -28.0619 C.3         1 MOL       0.0422
     41 CBS        17.7853   -7.4121  -29.2981 C.2         1 MOL       0.1411
     42 CBA        18.8471   -7.7800  -30.1109 C.2         1 MOL      -0.0269
     43 OBK        17.2018   -6.3342  -29.8716 O.3         1 MOL      -0.1670
     44 NBG        17.8374   -6.0368  -30.9748 N.2         1 MOL      -0.1519
     45 CBU        18.8704   -6.8849  -31.1775 C.2         1 MOL       0.0430
     46 CBT        19.7487   -6.8676  -32.2967 C.ar        1 MOL      -0.0150
     47 CAU        20.9309   -7.6483  -32.3362 C.ar        1 MOL      -0.0551
     48 CAO        21.7868   -7.6171  -33.4530 C.ar        1 MOL      -0.0621
     49 CAJ        21.4689   -6.8069  -34.5567 C.ar        1 MOL      -0.0626
     50 CAP        20.2975   -6.0320  -34.5436 C.ar        1 MOL      -0.0621
     51 CAV        19.4516   -6.0539  -33.4195 C.ar        1 MOL      -0.0551
     52 H1         10.4891  -11.3071  -22.4442 H           1 MOL       0.0557
     53 H2          9.9764  -10.7996  -20.1370 H           1 MOL       0.0599
     54 H3          9.9647  -12.5565  -18.4674 H           1 MOL       0.0559
     55 H4         10.3866  -14.8555  -19.1250 H           1 MOL       0.0599
     56 H5         10.8463  -15.3888  -21.4298 H           1 MOL       0.0557
     57 H6         10.1212  -13.7496  -24.1199 H           1 MOL       0.0776
     58 H7         11.5318  -14.6941  -23.6557 H           1 MOL       0.0776
     59 H8         13.3816  -11.4689  -25.7484 H           1 MOL       0.1888
     60 H9         15.6139  -11.2921  -23.8889 H           1 MOL       0.0787
     61 H10        17.1938  -12.2437  -25.6162 H           1 MOL       0.0465
     62 H11        15.8224  -12.8186  -26.5385 H           1 MOL       0.0465
     63 H12        14.4391  -14.6798  -25.6713 H           1 MOL       0.0557
     64 H13        14.3359  -16.6641  -24.2976 H           1 MOL       0.0599
     65 H14        15.9542  -17.0056  -22.5187 H           1 MOL       0.0559
     66 H15        17.6719  -15.3368  -22.1131 H           1 MOL       0.0599
     67 H16        17.7737  -13.3378  -23.4557 H           1 MOL       0.0557
     68 H17        15.5515   -7.0920  -26.1386 H           1 MOL       0.1876
     69 H18        14.2487   -5.5388  -25.3765 H           1 MOL       0.0747
     70 H19        12.4676   -4.4496  -26.8286 H           1 MOL       0.0446
     71 H20        13.1472   -5.3186  -28.2092 H           1 MOL       0.0446
     72 H21        12.9170   -2.4223  -28.2044 H           1 MOL       0.0530
     73 H22        14.4168   -0.5736  -28.5262 H           1 MOL       0.0525
     74 H23        17.7756   -0.8792  -28.3376 H           1 MOL       0.2458
     75 H24        17.6126   -2.8927  -27.0731 H           1 MOL       0.0525
     76 H25        16.1397   -4.7579  -26.7771 H           1 MOL       0.0530
     77 H26        14.7363  -10.4491  -27.6968 H           1 MOL       0.0495
     78 H27        16.4747  -10.6497  -27.5915 H           1 MOL       0.0495
     79 H28        15.7301   -8.9580  -29.1777 H           1 MOL       0.0581
     80 H29        18.0230   -8.9211  -27.8751 H           1 MOL       0.0513
     81 H30        17.4607   -7.3906  -27.2322 H           1 MOL       0.0513
     82 H31        19.4759   -8.5695  -29.9487 H           1 MOL       0.0289
     83 H32        21.1960   -8.2441  -31.5516 H           1 MOL       0.0616
     84 H33        22.6400   -8.1798  -33.4635 H           1 MOL       0.0615
     85 H34        22.0881   -6.7876  -35.3734 H           1 MOL       0.0610
     86 H35        20.0631   -5.4479  -35.3500 H           1 MOL       0.0615
     87 H36        18.6101   -5.4766  -33.4404 H           1 MOL       0.0616
@<TRIPOS>BOND
     1     1     2  ar
     2     6     1  ar
     3     2     3  ar
     4     4     3  ar
     5     5     4  ar
     6     6     5  ar
     7     7     6   1
     8     8     7   1
     9     9     8   1
    10     9    10   2
    11    11     9  am
    12    12    11   1
    13    12    13   1
    14    20    12   1
    15    13    14   1
    16    14    15  ar
    17    14    19  ar
    18    15    16  ar
    19    16    17  ar
    20    18    17  ar
    21    19    18  ar
    22    20    21  ar
    23    20    22  ar
    24    36    20   1
    25    23    24   1
    26    38    23  am
    27    24    25   1
    28    24    28   1
    29    25    26  ar
    30    25    27  ar
    31    28    29   1
    32    29    30  ar
    33    29    35  ar
    34    30    31  ar
    35    31    32  ar
    36    32    33   1
    37    34    32  ar
    38    35    34  ar
    39    37    36   1
    40    37    38   1
    41    37    40   1
    42    38    39   2
    43    40    41   1
    44    41    42   2
    45    41    43   1
    46    42    45   1
    47    43    44   1
    48    44    45   2
    49    45    46   1
    50    46    47  ar
    51    46    51  ar
    52    47    48  ar
    53    48    49  ar
    54    49    50  ar
    55    50    51  ar
    56     1    52   1
    57     2    53   1
    58     3    54   1
    59     4    55   1
    60     5    56   1
    61     7    57   1
    62     7    58   1
    63    11    59   1
    64    12    60   1
    65    13    61   1
    66    13    62   1
    67    15    63   1
    68    16    64   1
    69    17    65   1
    70    18    66   1
    71    19    67   1
    72    23    68   1
    73    24    69   1
    74    28    70   1
    75    28    71   1
    76    30    72   1
    77    31    73   1
    78    33    74   1
    79    34    75   1
    80    35    76   1
    81    36    77   1
    82    36    78   1
    83    37    79   1
    84    40    80   1
    85    40    81   1
    86    42    82   1
    87    47    83   1
    88    48    84   1
    89    49    85   1
    90    50    86   1
    91    51    87   1
@<TRIPOS>SUBSTRUCTURE
     1  MOL      1

