@<TRIPOS>MOLECULE
2xy9_ligand_034
    87    91
SMALL
GAST_HUCK
****
This file was generated by PARSER (from files_GN.cpp)

@<TRIPOS>ATOM
      1 CAQ        19.0802  -13.0855  -32.6690 C.ar        1 MOL      -0.0578
      2 CAK        20.1265  -14.0266  -32.6287 C.ar        1 MOL      -0.0685
      3 CAH        21.4469  -13.6012  -32.4035 C.ar        1 MOL      -0.0687
      4 CAL        21.7213  -12.2360  -32.2128 C.ar        1 MOL      -0.0685
      5 CAR        20.6732  -11.2967  -32.2454 C.ar        1 MOL      -0.0578
      6 CBP        19.3403  -11.7080  -32.4813 C.ar        1 MOL      -0.0130
      7 CBB        18.2292  -10.7279  -32.5542 C.3         1 MOL       0.1113
      8 OBJ        17.1762  -11.0731  -31.6458 O.3         1 MOL      -0.2506
      9 CBM        16.9759  -10.5879  -30.3934 C.2         1 MOL       0.3232
     10 OAB        17.8218   -9.6673  -29.8742 O.2         1 MOL      -0.3774
     11 NBI        15.8942  -11.0487  -29.7206 N.am        1 MOL      -0.2418
     12 CBX        15.3491  -10.5801  -28.4715 C.3         1 MOL       0.1176
     13 CBE        16.3467  -10.7627  -27.2626 C.3         1 MOL       0.0205
     14 CBQ        15.9732  -11.7908  -26.2509 C.ar        1 MOL      -0.0393
     15 CAS        14.7883  -11.6433  -25.4905 C.ar        1 MOL      -0.0602
     16 CAM        14.4704  -12.5598  -24.4684 C.ar        1 MOL      -0.0686
     17 CAI        15.3377  -13.6302  -24.1889 C.ar        1 MOL      -0.0687
     18 CAN        16.5228  -13.7833  -24.9275 C.ar        1 MOL      -0.0686
     19 CAT        16.8369  -12.8711  -25.9510 C.ar        1 MOL      -0.0602
     20 PBY        14.6202   -9.0653  -28.6502 P.3         1 MOL       0.0154
     21 OAG        13.3691   -9.0368  -27.9336 O.co2       1 MOL      -0.6174
     22 OAD        14.2650   -8.8648  -30.0343 O.co2       1 MOL      -0.6174
     23 N          14.1877   -5.6701  -26.4752 N.am        1 MOL      -0.2694
     24 CA         13.3279   -5.1808  -25.4291 C.3         1 MOL       0.1024
     25 C          11.9029   -4.9453  -25.7995 C.2         1 MOL       0.0619
     26 OXT        11.2379   -3.7999  -25.5266 O.co2       1 MOL      -0.5665
     27 O          11.1909   -5.9420  -26.3711 O.co2       1 MOL      -0.5665
     28 CB         14.0367   -3.9667  -24.7178 C.3         1 MOL       0.0108
     29 CG         14.1114   -3.9950  -23.2224 C.ar        1 MOL      -0.0499
     30 CD1        13.0566   -4.5141  -22.4350 C.ar        1 MOL      -0.0686
     31 CE1        13.1287   -4.5215  -21.0297 C.ar        1 MOL      -0.0398
     32 CZ         14.2501   -3.9818  -20.3754 C.ar        1 MOL       0.0805
     33 OH         14.2939   -3.9939  -19.0175 O.3         1 MOL      -0.3376
     34 CE2        15.2993   -3.4338  -21.1400 C.ar        1 MOL      -0.0398
     35 CD2        15.2290   -3.4440  -22.5464 C.ar        1 MOL      -0.0686
     36 CBF        15.5290   -7.7784  -28.0998 C.3         1 MOL       0.0375
     37 CBV        15.1577   -6.3320  -28.5872 C.3         1 MOL       0.0788
     38 CBN        14.0581   -5.7558  -27.7985 C.2         1 MOL       0.1848
     39 OAC        13.0682   -5.3349  -28.3787 O.2         1 MOL      -0.3964
     40 CBC        16.3901   -5.3660  -28.5606 C.3         1 MOL       0.0422
     41 CBS        17.5401   -5.8344  -29.3643 C.2         1 MOL       0.1411
     42 CBA        17.7370   -5.7473  -30.7357 C.2         1 MOL      -0.0269
     43 OBK        18.5977   -6.5008  -28.8518 O.3         1 MOL      -0.1670
     44 NBG        19.4184   -6.8124  -29.8169 N.2         1 MOL      -0.1519
     45 CBU        18.9550   -6.3704  -31.0028 C.2         1 MOL       0.0430
     46 CBT        19.6466   -6.5242  -32.2380 C.ar        1 MOL      -0.0150
     47 CAU        19.2548   -5.8300  -33.4105 C.ar        1 MOL      -0.0551
     48 CAO        19.9791   -5.9660  -34.6117 C.ar        1 MOL      -0.0621
     49 CAJ        21.1030   -6.8071  -34.6671 C.ar        1 MOL      -0.0626
     50 CAP        21.5065   -7.5081  -33.5188 C.ar        1 MOL      -0.0621
     51 CAV        20.7895   -7.3595  -32.3170 C.ar        1 MOL      -0.0551
     52 H1         18.1250  -13.4098  -32.8391 H           1 MOL       0.0557
     53 H2         19.9270  -15.0192  -32.7674 H           1 MOL       0.0599
     54 H3         22.2074  -14.2836  -32.3730 H           1 MOL       0.0559
     55 H4         22.6817  -11.9268  -32.0441 H           1 MOL       0.0599
     56 H5         20.8922  -10.3109  -32.1007 H           1 MOL       0.0557
     57 H6         17.8121  -10.7408  -33.5636 H           1 MOL       0.0776
     58 H7         18.5734   -9.7076  -32.3670 H           1 MOL       0.0776
     59 H8         15.3998  -11.7559  -30.1590 H           1 MOL       0.1888
     60 H9         14.5078  -11.2590  -28.3052 H           1 MOL       0.0787
     61 H10        16.4784   -9.8427  -26.7024 H           1 MOL       0.0465
     62 H11        17.3391  -10.9886  -27.6561 H           1 MOL       0.0465
     63 H12        14.1586  -10.8565  -25.6617 H           1 MOL       0.0557
     64 H13        13.6168  -12.4386  -23.9195 H           1 MOL       0.0599
     65 H14        15.1134  -14.2899  -23.4415 H           1 MOL       0.0559
     66 H15        17.1637  -14.5518  -24.7123 H           1 MOL       0.0599
     67 H16        17.7163  -12.9894  -26.4594 H           1 MOL       0.0557
     68 H17        15.0409   -5.9861  -26.1420 H           1 MOL       0.1876
     69 H18        13.2967   -6.0105  -24.7207 H           1 MOL       0.0747
     70 H19        13.5538   -3.0308  -24.9983 H           1 MOL       0.0446
     71 H20        15.0565   -3.8773  -25.1027 H           1 MOL       0.0446
     72 H21        12.2278   -4.9068  -22.8827 H           1 MOL       0.0530
     73 H22        12.3606   -4.9180  -20.4845 H           1 MOL       0.0525
     74 H23        15.2119   -3.7620  -18.7645 H           1 MOL       0.2458
     75 H24        16.1148   -3.0241  -20.6751 H           1 MOL       0.0525
     76 H25        15.9989   -3.0304  -23.0738 H           1 MOL       0.0530
     77 H26        16.5508   -8.0030  -28.3802 H           1 MOL       0.0495
     78 H27        15.5058   -7.8119  -27.0099 H           1 MOL       0.0495
     79 H28        14.8513   -6.3902  -29.6381 H           1 MOL       0.0581
     80 H29        16.7338   -5.2392  -27.5306 H           1 MOL       0.0513
     81 H30        16.1006   -4.3810  -28.9350 H           1 MOL       0.0513
     82 H31        17.1024   -5.3059  -31.4037 H           1 MOL       0.0289
     83 H32        18.4523   -5.1971  -33.4017 H           1 MOL       0.0616
     84 H33        19.6907   -5.4465  -35.4449 H           1 MOL       0.0615
     85 H34        21.6310   -6.9022  -35.5373 H           1 MOL       0.0610
     86 H35        22.3262   -8.1190  -33.5548 H           1 MOL       0.0615
     87 H36        21.1202   -7.8729  -31.4964 H           1 MOL       0.0616
@<TRIPOS>BOND
     1     1     2  ar
     2     6     1  ar
     3     2     3  ar
     4     4     3  ar
     5     5     4  ar
     6     6     5  ar
     7     7     6   1
     8     8     7   1
     9     9     8   1
    10     9    10   2
    11    11     9  am
    12    12    11   1
    13    12    13   1
    14    20    12   1
    15    13    14   1
    16    14    15  ar
    17    14    19  ar
    18    15    16  ar
    19    16    17  ar
    20    18    17  ar
    21    19    18  ar
    22    20    21  ar
    23    20    22  ar
    24    36    20   1
    25    23    24   1
    26    38    23  am
    27    24    25   1
    28    24    28   1
    29    25    26  ar
    30    25    27  ar
    31    28    29   1
    32    29    30  ar
    33    29    35  ar
    34    30    31  ar
    35    31    32  ar
    36    32    33   1
    37    34    32  ar
    38    35    34  ar
    39    37    36   1
    40    37    38   1
    41    37    40   1
    42    38    39   2
    43    40    41   1
    44    41    42   2
    45    41    43   1
    46    42    45   1
    47    43    44   1
    48    44    45   2
    49    45    46   1
    50    46    47  ar
    51    46    51  ar
    52    47    48  ar
    53    48    49  ar
    54    49    50  ar
    55    50    51  ar
    56     1    52   1
    57     2    53   1
    58     3    54   1
    59     4    55   1
    60     5    56   1
    61     7    57   1
    62     7    58   1
    63    11    59   1
    64    12    60   1
    65    13    61   1
    66    13    62   1
    67    15    63   1
    68    16    64   1
    69    17    65   1
    70    18    66   1
    71    19    67   1
    72    23    68   1
    73    24    69   1
    74    28    70   1
    75    28    71   1
    76    30    72   1
    77    31    73   1
    78    33    74   1
    79    34    75   1
    80    35    76   1
    81    36    77   1
    82    36    78   1
    83    37    79   1
    84    40    80   1
    85    40    81   1
    86    42    82   1
    87    47    83   1
    88    48    84   1
    89    49    85   1
    90    50    86   1
    91    51    87   1
@<TRIPOS>SUBSTRUCTURE
     1  MOL      1

