@<TRIPOS>MOLECULE
2xy9_ligand_055
    87    91
SMALL
GAST_HUCK
****
This file was generated by PARSER (from files_GN.cpp)

@<TRIPOS>ATOM
      1 CAQ        14.3298  -13.3623  -26.2018 C.ar        1 MOL      -0.0578
      2 CAK        15.3005  -14.2343  -25.6747 C.ar        1 MOL      -0.0685
      3 CAH        16.6667  -13.9270  -25.7980 C.ar        1 MOL      -0.0687
      4 CAL        17.0657  -12.7642  -26.4786 C.ar        1 MOL      -0.0685
      5 CAR        16.0942  -11.9052  -27.0342 C.ar        1 MOL      -0.0578
      6 CBP        14.7163  -12.1763  -26.8765 C.ar        1 MOL      -0.0130
      7 CBB        13.7121  -11.1908  -27.3420 C.3         1 MOL       0.1113
      8 OBJ        13.4067  -10.2173  -26.3321 O.3         1 MOL      -0.2506
      9 CBM        14.2744   -9.5593  -25.5195 C.2         1 MOL       0.3232
     10 OAB        15.6035   -9.8491  -25.5468 O.2         1 MOL      -0.3774
     11 NBI        13.7741   -8.6635  -24.6517 N.am        1 MOL      -0.2418
     12 CBX        14.4537   -7.9381  -23.6081 C.3         1 MOL       0.1176
     13 CBE        14.7435   -8.8471  -22.3656 C.3         1 MOL       0.0205
     14 CBQ        15.5072  -10.1046  -22.6229 C.ar        1 MOL      -0.0393
     15 CAS        14.8276  -11.3221  -22.8630 C.ar        1 MOL      -0.0602
     16 CAM        15.5395  -12.5175  -23.0757 C.ar        1 MOL      -0.0686
     17 CAI        16.9439  -12.5155  -23.0433 C.ar        1 MOL      -0.0687
     18 CAN        17.6362  -11.3194  -22.7762 C.ar        1 MOL      -0.0686
     19 CAT        16.9196  -10.1274  -22.5619 C.ar        1 MOL      -0.0602
     20 PBY        15.7238   -6.9340  -24.0791 P.3         1 MOL       0.0154
     21 OAG        15.6162   -6.6182  -25.4816 O.co2       1 MOL      -0.6174
     22 OAD        16.9663   -7.6653  -24.0760 O.co2       1 MOL      -0.6174
     23 N          13.5170   -4.6056  -25.0748 N.am        1 MOL      -0.2694
     24 CA         12.8637   -4.3198  -26.3209 C.3         1 MOL       0.1024
     25 C          11.7166   -5.2516  -26.4229 C.2         1 MOL       0.0619
     26 OXT        10.5077   -4.8954  -25.9382 O.co2       1 MOL      -0.5665
     27 O          11.9074   -6.5706  -26.6405 O.co2       1 MOL      -0.5665
     28 CB         13.7822   -4.4611  -27.5812 C.3         1 MOL       0.0108
     29 CG         14.8469   -3.4216  -27.6799 C.ar        1 MOL      -0.0499
     30 CD1        14.4999   -2.0760  -27.9521 C.ar        1 MOL      -0.0686
     31 CE1        15.4746   -1.0617  -27.9307 C.ar        1 MOL      -0.0398
     32 CZ         16.8160   -1.3748  -27.6437 C.ar        1 MOL       0.0805
     33 OH         17.7338   -0.3769  -27.5551 O.3         1 MOL      -0.3376
     34 CE2        17.1845   -2.7187  -27.4344 C.ar        1 MOL      -0.0398
     35 CD2        16.2085   -3.7325  -27.4586 C.ar        1 MOL      -0.0686
     36 CBF        16.0185   -5.5331  -23.2056 C.3         1 MOL       0.0375
     37 CBV        15.0032   -4.3321  -23.1713 C.3         1 MOL       0.0788
     38 CBN        14.4917   -3.9221  -24.4842 C.2         1 MOL       0.1848
     39 OAC        14.9205   -2.8912  -24.9927 O.2         1 MOL      -0.3964
     40 CBC        13.8490   -4.4681  -22.1123 C.3         1 MOL       0.0422
     41 CBS        14.1647   -4.0718  -20.7195 C.2         1 MOL       0.1411
     42 CBA        14.8769   -2.9674  -20.2748 C.2         1 MOL      -0.0269
     43 OBK        13.6349   -4.6566  -19.6180 O.3         1 MOL      -0.1670
     44 NBG        14.0179   -4.0033  -18.5513 N.2         1 MOL      -0.1519
     45 CBU        14.7917   -2.9523  -18.8841 C.2         1 MOL       0.0430
     46 CBT        15.3860   -2.0318  -17.9706 C.ar        1 MOL      -0.0150
     47 CAU        16.2949   -1.0319  -18.4010 C.ar        1 MOL      -0.0551
     48 CAO        16.9086   -0.1562  -17.4893 C.ar        1 MOL      -0.0621
     49 CAJ        16.6133   -0.2507  -16.1172 C.ar        1 MOL      -0.0626
     50 CAP        15.7022   -1.2230  -15.6680 C.ar        1 MOL      -0.0621
     51 CAV        15.0979   -2.1035  -16.5832 C.ar        1 MOL      -0.0551
     52 H1         13.3382  -13.5870  -26.0822 H           1 MOL       0.0557
     53 H2         15.0129  -15.0941  -25.2024 H           1 MOL       0.0599
     54 H3         17.3726  -14.5573  -25.4092 H           1 MOL       0.0559
     55 H4         18.0571  -12.5533  -26.6026 H           1 MOL       0.0599
     56 H5         16.4072  -11.0863  -27.5507 H           1 MOL       0.0557
     57 H6         12.7859  -11.6998  -27.6141 H           1 MOL       0.0776
     58 H7         14.0655  -10.6685  -28.2342 H           1 MOL       0.0776
     59 H8         12.8151   -8.5112  -24.7208 H           1 MOL       0.1888
     60 H9         13.6851   -7.2441  -23.2788 H           1 MOL       0.0787
     61 H10        13.7844   -9.1273  -21.9261 H           1 MOL       0.0465
     62 H11        15.2512   -8.2664  -21.5918 H           1 MOL       0.0465
     63 H12        13.8044  -11.3508  -22.8737 H           1 MOL       0.0557
     64 H13        15.0355  -13.3896  -23.2441 H           1 MOL       0.0599
     65 H14        17.4618  -13.3830  -23.2029 H           1 MOL       0.0559
     66 H15        18.6570  -11.3211  -22.7207 H           1 MOL       0.0599
     67 H16        17.4382   -9.2776  -22.3436 H           1 MOL       0.0557
     68 H17        13.1895   -5.3774  -24.5880 H           1 MOL       0.1876
     69 H18        12.4586   -3.3030  -26.2793 H           1 MOL       0.0747
     70 H19        13.1721   -4.3986  -28.4872 H           1 MOL       0.0446
     71 H20        14.2300   -5.4585  -27.5786 H           1 MOL       0.0446
     72 H21        13.5264   -1.8239  -28.1427 H           1 MOL       0.0530
     73 H22        15.2000   -0.0906  -28.1019 H           1 MOL       0.0525
     74 H23        18.4768   -0.7521  -27.0334 H           1 MOL       0.2458
     75 H24        18.1617   -2.9593  -27.2517 H           1 MOL       0.0525
     76 H25        16.5005   -4.6963  -27.2840 H           1 MOL       0.0530
     77 H26        16.9584   -5.1356  -23.5996 H           1 MOL       0.0495
     78 H27        16.2247   -5.8314  -22.1743 H           1 MOL       0.0495
     79 H28        15.6154   -3.4930  -22.8259 H           1 MOL       0.0581
     80 H29        13.4908   -5.4968  -22.0890 H           1 MOL       0.0513
     81 H30        12.9931   -3.8546  -22.4030 H           1 MOL       0.0513
     82 H31        15.3570   -2.2880  -20.8641 H           1 MOL       0.0289
     83 H32        16.5342   -0.9305  -19.3881 H           1 MOL       0.0616
     84 H33        17.5728    0.5497  -17.8193 H           1 MOL       0.0615
     85 H34        17.0601    0.3839  -15.4510 H           1 MOL       0.0610
     86 H35        15.4871   -1.2913  -14.6692 H           1 MOL       0.0615
     87 H36        14.4435   -2.8011  -16.2220 H           1 MOL       0.0616
@<TRIPOS>BOND
     1     1     2  ar
     2     6     1  ar
     3     2     3  ar
     4     4     3  ar
     5     5     4  ar
     6     6     5  ar
     7     7     6   1
     8     8     7   1
     9     9     8   1
    10     9    10   2
    11    11     9  am
    12    12    11   1
    13    12    13   1
    14    20    12   1
    15    13    14   1
    16    14    15  ar
    17    14    19  ar
    18    15    16  ar
    19    16    17  ar
    20    18    17  ar
    21    19    18  ar
    22    20    21  ar
    23    20    22  ar
    24    36    20   1
    25    23    24   1
    26    38    23  am
    27    24    25   1
    28    24    28   1
    29    25    26  ar
    30    25    27  ar
    31    28    29   1
    32    29    30  ar
    33    29    35  ar
    34    30    31  ar
    35    31    32  ar
    36    32    33   1
    37    34    32  ar
    38    35    34  ar
    39    37    36   1
    40    37    38   1
    41    37    40   1
    42    38    39   2
    43    40    41   1
    44    41    42   2
    45    41    43   1
    46    42    45   1
    47    43    44   1
    48    44    45   2
    49    45    46   1
    50    46    47  ar
    51    46    51  ar
    52    47    48  ar
    53    48    49  ar
    54    49    50  ar
    55    50    51  ar
    56     1    52   1
    57     2    53   1
    58     3    54   1
    59     4    55   1
    60     5    56   1
    61     7    57   1
    62     7    58   1
    63    11    59   1
    64    12    60   1
    65    13    61   1
    66    13    62   1
    67    15    63   1
    68    16    64   1
    69    17    65   1
    70    18    66   1
    71    19    67   1
    72    23    68   1
    73    24    69   1
    74    28    70   1
    75    28    71   1
    76    30    72   1
    77    31    73   1
    78    33    74   1
    79    34    75   1
    80    35    76   1
    81    36    77   1
    82    36    78   1
    83    37    79   1
    84    40    80   1
    85    40    81   1
    86    42    82   1
    87    47    83   1
    88    48    84   1
    89    49    85   1
    90    50    86   1
    91    51    87   1
@<TRIPOS>SUBSTRUCTURE
     1  MOL      1

