@<TRIPOS>MOLECULE
2xy9_ligand_041
    87    91
SMALL
GAST_HUCK
****
This file was generated by PARSER (from files_GN.cpp)

@<TRIPOS>ATOM
      1 CAQ         9.0445   -4.5596  -15.1878 C.ar        1 MOL      -0.0578
      2 CAK         8.1294   -3.4970  -15.0866 C.ar        1 MOL      -0.0685
      3 CAH         8.5831   -2.1658  -15.1213 C.ar        1 MOL      -0.0687
      4 CAL         9.9613   -1.8973  -15.2204 C.ar        1 MOL      -0.0685
      5 CAR        10.8803   -2.9595  -15.2979 C.ar        1 MOL      -0.0578
      6 CBP        10.4333   -4.3050  -15.3012 C.ar        1 MOL      -0.0130
      7 CBB        11.4099   -5.4135  -15.4686 C.3         1 MOL       0.1113
      8 OBJ        12.3716   -5.1924  -16.5168 O.3         1 MOL      -0.2506
      9 CBM        12.2415   -4.4695  -17.6595 C.2         1 MOL       0.3232
     10 OAB        11.0782   -3.8311  -17.9207 O.2         1 MOL      -0.3774
     11 NBI        13.3433   -4.3337  -18.4298 N.am        1 MOL      -0.2418
     12 CBX        13.5605   -3.3315  -19.4433 C.3         1 MOL       0.1176
     13 CBE        13.0603   -1.9072  -19.0134 C.3         1 MOL       0.0205
     14 CBQ        13.7495   -1.1367  -17.9338 C.ar        1 MOL      -0.0393
     15 CAS        14.7165   -1.6722  -17.0456 C.ar        1 MOL      -0.0602
     16 CAM        15.2794   -0.8883  -16.0196 C.ar        1 MOL      -0.0686
     17 CAI        14.8913    0.4532  -15.8659 C.ar        1 MOL      -0.0687
     18 CAN        13.9438    1.0116  -16.7407 C.ar        1 MOL      -0.0686
     19 CAT        13.3821    0.2231  -17.7644 C.ar        1 MOL      -0.0602
     20 PBY        15.1532   -3.3536  -19.9907 P.3         1 MOL       0.0154
     21 OAG        16.0528   -4.0092  -19.0568 O.co2       1 MOL      -0.6174
     22 OAD        15.7183   -2.0289  -20.0036 O.co2       1 MOL      -0.6174
     23 N          13.3394   -5.8037  -23.9121 N.am        1 MOL      -0.2694
     24 CA         13.0978   -6.1046  -25.2974 C.3         1 MOL       0.1024
     25 C          11.9596   -5.2903  -25.7774 C.2         1 MOL       0.0619
     26 OXT        10.9609   -5.8134  -26.5202 O.co2       1 MOL      -0.5665
     27 O          11.8783   -3.9784  -25.4438 O.co2       1 MOL      -0.5665
     28 CB         12.9110   -7.6490  -25.4615 C.3         1 MOL       0.0108
     29 CG         13.2573   -8.3133  -26.7531 C.ar        1 MOL      -0.0499
     30 CD1        12.8812   -9.6697  -26.9186 C.ar        1 MOL      -0.0686
     31 CE1        13.2333  -10.3907  -28.0709 C.ar        1 MOL      -0.0398
     32 CZ         13.9824   -9.7697  -29.0911 C.ar        1 MOL       0.0805
     33 OH         14.3511  -10.4488  -30.2066 O.3         1 MOL      -0.3376
     34 CE2        14.3515   -8.4214  -28.9548 C.ar        1 MOL      -0.0398
     35 CD2        13.9953   -7.7014  -27.8047 C.ar        1 MOL      -0.0686
     36 CBF        15.3625   -3.9187  -21.5460 C.3         1 MOL       0.0375
     37 CBV        14.6640   -5.2679  -21.9451 C.3         1 MOL       0.0788
     38 CBN        14.4532   -5.2826  -23.3996 C.2         1 MOL       0.1848
     39 OAC        15.3795   -4.9292  -24.1231 O.2         1 MOL      -0.3964
     40 CBC        15.4147   -6.5449  -21.3961 C.3         1 MOL       0.0422
     41 CBS        15.5411   -7.7079  -22.3006 C.2         1 MOL       0.1411
     42 CBA        16.2365   -7.7153  -23.4975 C.2         1 MOL      -0.0269
     43 OBK        14.9841   -8.9327  -22.1541 O.3         1 MOL      -0.1670
     44 NBG        15.2444   -9.6474  -23.2189 N.2         1 MOL      -0.1519
     45 CBU        15.9815   -8.9408  -24.0981 C.2         1 MOL       0.0430
     46 CBT        16.3281   -9.3401  -25.4118 C.ar        1 MOL      -0.0150
     47 CAU        16.7050   -8.3877  -26.3969 C.ar        1 MOL      -0.0551
     48 CAO        17.0461   -8.7906  -27.6986 C.ar        1 MOL      -0.0621
     49 CAJ        17.0016  -10.1482  -28.0496 C.ar        1 MOL      -0.0626
     50 CAP        16.6104  -11.1050  -27.0969 C.ar        1 MOL      -0.0621
     51 CAV        16.2668  -10.7018  -25.7913 C.ar        1 MOL      -0.0551
     52 H1          8.6895   -5.5176  -15.1877 H           1 MOL       0.0557
     53 H2          7.1312   -3.6925  -14.9882 H           1 MOL       0.0599
     54 H3          7.9131   -1.3964  -15.0698 H           1 MOL       0.0559
     55 H4         10.2952   -0.9314  -15.2314 H           1 MOL       0.0599
     56 H5         11.8785   -2.7479  -15.3921 H           1 MOL       0.0557
     57 H6         10.9105   -6.3679  -15.6565 H           1 MOL       0.0776
     58 H7         11.9688   -5.5105  -14.5359 H           1 MOL       0.0776
     59 H8         14.0801   -4.9338  -18.2275 H           1 MOL       0.1888
     60 H9         12.9469   -3.6218  -20.2962 H           1 MOL       0.0787
     61 H10        12.0308   -2.0104  -18.6833 H           1 MOL       0.0465
     62 H11        12.9910   -1.2705  -19.8947 H           1 MOL       0.0465
     63 H12        15.0244   -2.6383  -17.1137 H           1 MOL       0.0557
     64 H13        15.9539   -1.2992  -15.3675 H           1 MOL       0.0599
     65 H14        15.2787    1.0198  -15.1010 H           1 MOL       0.0559
     66 H15        13.6445    1.9831  -16.6198 H           1 MOL       0.0599
     67 H16        12.6816    0.6495  -18.3783 H           1 MOL       0.0557
     68 H17        12.6633   -6.0902  -23.2745 H           1 MOL       0.1876
     69 H18        13.9626   -5.7998  -25.8789 H           1 MOL       0.0747
     70 H19        11.8766   -7.9078  -25.2053 H           1 MOL       0.0446
     71 H20        13.5357   -8.1319  -24.7098 H           1 MOL       0.0446
     72 H21        12.3602  -10.1504  -26.1802 H           1 MOL       0.0530
     73 H22        12.9564  -11.3711  -28.1600 H           1 MOL       0.0525
     74 H23        14.7545  -11.2859  -29.8965 H           1 MOL       0.2458
     75 H24        14.8864   -7.9596  -29.6961 H           1 MOL       0.0525
     76 H25        14.2757   -6.7249  -27.7633 H           1 MOL       0.0530
     77 H26        16.4383   -4.0170  -21.7263 H           1 MOL       0.0495
     78 H27        14.9996   -3.1226  -22.2073 H           1 MOL       0.0495
     79 H28        13.6699   -5.2738  -21.4876 H           1 MOL       0.0581
     80 H29        14.8888   -6.8916  -20.5062 H           1 MOL       0.0513
     81 H30        16.4270   -6.2818  -21.0817 H           1 MOL       0.0513
     82 H31        16.7821   -6.9440  -23.8727 H           1 MOL       0.0289
     83 H32        16.7244   -7.3877  -26.1833 H           1 MOL       0.0616
     84 H33        17.3211   -8.0900  -28.3943 H           1 MOL       0.0615
     85 H34        17.2443  -10.4360  -28.9983 H           1 MOL       0.0610
     86 H35        16.5709  -12.0923  -27.3502 H           1 MOL       0.0615
     87 H36        15.9779  -11.4181  -25.1199 H           1 MOL       0.0616
@<TRIPOS>BOND
     1     1     2  ar
     2     6     1  ar
     3     2     3  ar
     4     4     3  ar
     5     5     4  ar
     6     6     5  ar
     7     7     6   1
     8     8     7   1
     9     9     8   1
    10     9    10   2
    11    11     9  am
    12    12    11   1
    13    12    13   1
    14    20    12   1
    15    13    14   1
    16    14    15  ar
    17    14    19  ar
    18    15    16  ar
    19    16    17  ar
    20    18    17  ar
    21    19    18  ar
    22    20    21  ar
    23    20    22  ar
    24    36    20   1
    25    23    24   1
    26    38    23  am
    27    24    25   1
    28    24    28   1
    29    25    26  ar
    30    25    27  ar
    31    28    29   1
    32    29    30  ar
    33    29    35  ar
    34    30    31  ar
    35    31    32  ar
    36    32    33   1
    37    34    32  ar
    38    35    34  ar
    39    37    36   1
    40    37    38   1
    41    37    40   1
    42    38    39   2
    43    40    41   1
    44    41    42   2
    45    41    43   1
    46    42    45   1
    47    43    44   1
    48    44    45   2
    49    45    46   1
    50    46    47  ar
    51    46    51  ar
    52    47    48  ar
    53    48    49  ar
    54    49    50  ar
    55    50    51  ar
    56     1    52   1
    57     2    53   1
    58     3    54   1
    59     4    55   1
    60     5    56   1
    61     7    57   1
    62     7    58   1
    63    11    59   1
    64    12    60   1
    65    13    61   1
    66    13    62   1
    67    15    63   1
    68    16    64   1
    69    17    65   1
    70    18    66   1
    71    19    67   1
    72    23    68   1
    73    24    69   1
    74    28    70   1
    75    28    71   1
    76    30    72   1
    77    31    73   1
    78    33    74   1
    79    34    75   1
    80    35    76   1
    81    36    77   1
    82    36    78   1
    83    37    79   1
    84    40    80   1
    85    40    81   1
    86    42    82   1
    87    47    83   1
    88    48    84   1
    89    49    85   1
    90    50    86   1
    91    51    87   1
@<TRIPOS>SUBSTRUCTURE
     1  MOL      1

