@<TRIPOS>MOLECULE
2xy9_ligand_020
    87    91
SMALL
GAST_HUCK
****
This file was generated by PARSER (from files_GN.cpp)

@<TRIPOS>ATOM
      1 CAQ        10.9366   -4.2253  -11.8132 C.ar        1 MOL      -0.0578
      2 CAK         9.6816   -3.9442  -11.2420 C.ar        1 MOL      -0.0685
      3 CAH         8.6028   -4.8230  -11.4365 C.ar        1 MOL      -0.0687
      4 CAL         8.7802   -5.9906  -12.2008 C.ar        1 MOL      -0.0685
      5 CAR        10.0293   -6.2617  -12.7886 C.ar        1 MOL      -0.0578
      6 CBP        11.1227   -5.3809  -12.6086 C.ar        1 MOL      -0.0130
      7 CBB        12.3991   -5.6189  -13.3272 C.3         1 MOL       0.1113
      8 OBJ        12.1168   -5.4998  -14.7245 O.3         1 MOL      -0.2506
      9 CBM        12.2670   -4.4104  -15.5185 C.2         1 MOL       0.3232
     10 OAB        12.8172   -3.2667  -15.0424 O.2         1 MOL      -0.3774
     11 NBI        11.6948   -4.4928  -16.7387 N.am        1 MOL      -0.2418
     12 CBX        11.3787   -3.4080  -17.6300 C.3         1 MOL       0.1176
     13 CBE        10.7823   -2.1520  -16.8844 C.3         1 MOL       0.0205
     14 CBQ         9.6525   -2.3235  -15.9130 C.ar        1 MOL      -0.0393
     15 CAS         9.2841   -1.2115  -15.1107 C.ar        1 MOL      -0.0602
     16 CAM         8.2602   -1.3066  -14.1494 C.ar        1 MOL      -0.0686
     17 CAI         7.5752   -2.5200  -13.9737 C.ar        1 MOL      -0.0687
     18 CAN         7.8951   -3.6272  -14.7807 C.ar        1 MOL      -0.0686
     19 CAT         8.9126   -3.5236  -15.7482 C.ar        1 MOL      -0.0602
     20 PBY        12.6707   -3.1076  -18.6749 P.3         1 MOL       0.0154
     21 OAG        13.9248   -3.3163  -17.9951 O.co2       1 MOL      -0.6174
     22 OAD        12.6445   -1.7179  -19.0610 O.co2       1 MOL      -0.6174
     23 N          13.0141   -4.8968  -23.1878 N.am        1 MOL      -0.2694
     24 CA         12.8650   -4.7908  -24.6160 C.3         1 MOL       0.1024
     25 C          12.0723   -5.9399  -25.1186 C.2         1 MOL       0.0619
     26 OXT        12.4473   -7.2111  -24.8466 O.co2       1 MOL      -0.5665
     27 O          11.0361   -5.7476  -25.9716 O.co2       1 MOL      -0.5665
     28 CB         14.2655   -4.7079  -25.2987 C.3         1 MOL       0.0108
     29 CG         14.2263   -4.6798  -26.7907 C.ar        1 MOL      -0.0499
     30 CD1        14.2147   -5.8835  -27.5369 C.ar        1 MOL      -0.0686
     31 CE1        14.1861   -5.8524  -28.9445 C.ar        1 MOL      -0.0398
     32 CZ         14.1836   -4.6245  -29.6327 C.ar        1 MOL       0.0805
     33 OH         14.1668   -4.6197  -30.9856 O.3         1 MOL      -0.3376
     34 CE2        14.2114   -3.4214  -28.8970 C.ar        1 MOL      -0.0398
     35 CD2        14.2246   -3.4490  -27.4889 C.ar        1 MOL      -0.0686
     36 CBF        12.6150   -4.0186  -20.0880 C.3         1 MOL       0.0375
     37 CBV        13.8965   -4.3238  -20.9686 C.3         1 MOL       0.0788
     38 CBN        13.6608   -4.0408  -22.3976 C.2         1 MOL       0.1848
     39 OAC        14.0818   -2.9985  -22.8806 O.2         1 MOL      -0.3964
     40 CBC        15.3176   -3.8350  -20.5067 C.3         1 MOL       0.0422
     41 CBS        15.4641   -2.4006  -20.1794 C.2         1 MOL       0.1411
     42 CBA        16.1056   -1.8696  -19.0703 C.2         1 MOL      -0.0269
     43 OBK        15.0482   -1.3510  -20.9305 O.3         1 MOL      -0.1670
     44 NBG        15.3825   -0.2376  -20.3357 N.2         1 MOL      -0.1519
     45 CBU        16.0369   -0.4828  -19.1832 C.2         1 MOL       0.0430
     46 CBT        16.5302    0.5074  -18.2884 C.ar        1 MOL      -0.0150
     47 CAU        16.9704    0.1799  -16.9800 C.ar        1 MOL      -0.0551
     48 CAO        17.4468    1.1713  -16.1016 C.ar        1 MOL      -0.0621
     49 CAJ        17.5109    2.5108  -16.5193 C.ar        1 MOL      -0.0626
     50 CAP        17.0947    2.8604  -17.8166 C.ar        1 MOL      -0.0621
     51 CAV        16.6058    1.8676  -18.6874 C.ar        1 MOL      -0.0551
     52 H1         11.7052   -3.5651  -11.6742 H           1 MOL       0.0557
     53 H2          9.5474   -3.0920  -10.6916 H           1 MOL       0.0599
     54 H3          7.6917   -4.6151  -11.0266 H           1 MOL       0.0559
     55 H4          7.9958   -6.6305  -12.3393 H           1 MOL       0.0599
     56 H5         10.1335   -7.1005  -13.3662 H           1 MOL       0.0557
     57 H6         12.7640   -6.6288  -13.1333 H           1 MOL       0.0776
     58 H7         13.1791   -4.9168  -13.0154 H           1 MOL       0.0776
     59 H8         11.3295   -5.3620  -16.9771 H           1 MOL       0.1888
     60 H9         10.5745   -3.7798  -18.2645 H           1 MOL       0.0787
     61 H10        10.4399   -1.4400  -17.6376 H           1 MOL       0.0465
     62 H11        11.5942   -1.6566  -16.3402 H           1 MOL       0.0465
     63 H12         9.7712   -0.3160  -15.2160 H           1 MOL       0.0557
     64 H13         8.0206   -0.4958  -13.5771 H           1 MOL       0.0599
     65 H14         6.8414   -2.5939  -13.2682 H           1 MOL       0.0559
     66 H15         7.3812   -4.5032  -14.6677 H           1 MOL       0.0599
     67 H16         9.0990   -4.3392  -16.3342 H           1 MOL       0.0557
     68 H17        12.6377   -5.6874  -22.7650 H           1 MOL       0.1876
     69 H18        12.3021   -3.8739  -24.8421 H           1 MOL       0.0747
     70 H19        14.8692   -5.5551  -24.9547 H           1 MOL       0.0446
     71 H20        14.7856   -3.8081  -24.9527 H           1 MOL       0.0446
     72 H21        14.2221   -6.7877  -27.0625 H           1 MOL       0.0530
     73 H22        14.1799   -6.7312  -29.4700 H           1 MOL       0.0525
     74 H23        14.1998   -3.6751  -31.2537 H           1 MOL       0.2458
     75 H24        14.2328   -2.5212  -29.3843 H           1 MOL       0.0525
     76 H25        14.2465   -2.5637  -26.9764 H           1 MOL       0.0530
     77 H26        11.8548   -3.5343  -20.7095 H           1 MOL       0.0495
     78 H27        12.1794   -4.9807  -19.7997 H           1 MOL       0.0495
     79 H28        14.0068   -5.4130  -20.9272 H           1 MOL       0.0581
     80 H29        16.0598   -4.0702  -21.2789 H           1 MOL       0.0513
     81 H30        15.6105   -4.4087  -19.6255 H           1 MOL       0.0513
     82 H31        16.5455   -2.4050  -18.3222 H           1 MOL       0.0289
     83 H32        16.9375   -0.7838  -16.6404 H           1 MOL       0.0616
     84 H33        17.7461    0.9166  -15.1559 H           1 MOL       0.0615
     85 H34        17.8510    3.2357  -15.8804 H           1 MOL       0.0610
     86 H35        17.1495    3.8336  -18.1262 H           1 MOL       0.0615
     87 H36        16.3241    2.1535  -19.6268 H           1 MOL       0.0616
@<TRIPOS>BOND
     1     1     2  ar
     2     6     1  ar
     3     2     3  ar
     4     4     3  ar
     5     5     4  ar
     6     6     5  ar
     7     7     6   1
     8     8     7   1
     9     9     8   1
    10     9    10   2
    11    11     9  am
    12    12    11   1
    13    12    13   1
    14    20    12   1
    15    13    14   1
    16    14    15  ar
    17    14    19  ar
    18    15    16  ar
    19    16    17  ar
    20    18    17  ar
    21    19    18  ar
    22    20    21  ar
    23    20    22  ar
    24    36    20   1
    25    23    24   1
    26    38    23  am
    27    24    25   1
    28    24    28   1
    29    25    26  ar
    30    25    27  ar
    31    28    29   1
    32    29    30  ar
    33    29    35  ar
    34    30    31  ar
    35    31    32  ar
    36    32    33   1
    37    34    32  ar
    38    35    34  ar
    39    37    36   1
    40    37    38   1
    41    37    40   1
    42    38    39   2
    43    40    41   1
    44    41    42   2
    45    41    43   1
    46    42    45   1
    47    43    44   1
    48    44    45   2
    49    45    46   1
    50    46    47  ar
    51    46    51  ar
    52    47    48  ar
    53    48    49  ar
    54    49    50  ar
    55    50    51  ar
    56     1    52   1
    57     2    53   1
    58     3    54   1
    59     4    55   1
    60     5    56   1
    61     7    57   1
    62     7    58   1
    63    11    59   1
    64    12    60   1
    65    13    61   1
    66    13    62   1
    67    15    63   1
    68    16    64   1
    69    17    65   1
    70    18    66   1
    71    19    67   1
    72    23    68   1
    73    24    69   1
    74    28    70   1
    75    28    71   1
    76    30    72   1
    77    31    73   1
    78    33    74   1
    79    34    75   1
    80    35    76   1
    81    36    77   1
    82    36    78   1
    83    37    79   1
    84    40    80   1
    85    40    81   1
    86    42    82   1
    87    47    83   1
    88    48    84   1
    89    49    85   1
    90    50    86   1
    91    51    87   1
@<TRIPOS>SUBSTRUCTURE
     1  MOL      1

