@<TRIPOS>MOLECULE
2xy9_ligand_047
    87    91
SMALL
GAST_HUCK
****
This file was generated by PARSER (from files_GN.cpp)

@<TRIPOS>ATOM
      1 CAQ        13.5727   -3.5978  -20.2298 C.ar        1 MOL      -0.0578
      2 CAK        12.5860   -2.9000  -19.5115 C.ar        1 MOL      -0.0685
      3 CAH        12.7435   -1.5215  -19.2550 C.ar        1 MOL      -0.0687
      4 CAL        13.8887   -0.8495  -19.7248 C.ar        1 MOL      -0.0685
      5 CAR        14.8675   -1.5484  -20.4540 C.ar        1 MOL      -0.0578
      6 CBP        14.7301   -2.9361  -20.7157 C.ar        1 MOL      -0.0130
      7 CBB        15.7730   -3.6617  -21.4801 C.3         1 MOL       0.1113
      8 OBJ        15.5497   -3.6499  -22.9057 O.3         1 MOL      -0.2506
      9 CBM        14.3714   -3.9048  -23.5386 C.2         1 MOL       0.3232
     10 OAB        13.2142   -4.0563  -22.8403 O.2         1 MOL      -0.3774
     11 NBI        14.4039   -4.0629  -24.8874 N.am        1 MOL      -0.2418
     12 CBX        13.3078   -4.5297  -25.7020 C.3         1 MOL       0.1176
     13 CBE        13.2774   -3.7963  -27.0822 C.3         1 MOL       0.0205
     14 CBQ        14.5466   -3.7531  -27.8717 C.ar        1 MOL      -0.0393
     15 CAS        14.7037   -4.5318  -29.0470 C.ar        1 MOL      -0.0602
     16 CAM        15.9059   -4.5036  -29.7767 C.ar        1 MOL      -0.0686
     17 CAI        16.9749   -3.6963  -29.3443 C.ar        1 MOL      -0.0687
     18 CAN        16.8255   -2.8942  -28.1982 C.ar        1 MOL      -0.0686
     19 CAT        15.6299   -2.9308  -27.4647 C.ar        1 MOL      -0.0602
     20 PBY        13.2583   -6.2137  -25.7783 P.3         1 MOL       0.0154
     21 OAG        14.1315   -6.7055  -26.8187 O.co2       1 MOL      -0.6174
     22 OAD        11.9386   -6.6235  -26.1943 O.co2       1 MOL      -0.6174
     23 N          13.4063  -10.1444  -25.9330 N.am        1 MOL      -0.2694
     24 CA         13.6976  -11.0902  -26.9638 C.3         1 MOL       0.1024
     25 C          13.0441  -10.6016  -28.1909 C.2         1 MOL       0.0619
     26 OXT        11.7049  -10.4029  -28.2278 O.co2       1 MOL      -0.5665
     27 O          13.7803  -10.2515  -29.2675 O.co2       1 MOL      -0.5665
     28 CB         13.1953  -12.4853  -26.4734 C.3         1 MOL       0.0108
     29 CG         12.8108  -13.4636  -27.5323 C.ar        1 MOL      -0.0499
     30 CD1        11.6491  -14.2629  -27.3983 C.ar        1 MOL      -0.0686
     31 CE1        11.3184  -15.2263  -28.3672 C.ar        1 MOL      -0.0398
     32 CZ         12.1468  -15.4140  -29.4944 C.ar        1 MOL       0.0805
     33 OH         11.8246  -16.3699  -30.4011 O.3         1 MOL      -0.3376
     34 CE2        13.3009  -14.6260  -29.6401 C.ar        1 MOL      -0.0398
     35 CD2        13.6375  -13.6625  -28.6661 C.ar        1 MOL      -0.0686
     36 CBF        13.7258   -6.9619  -24.3528 C.3         1 MOL       0.0375
     37 CBV        13.7693   -8.5293  -24.2025 C.3         1 MOL       0.0788
     38 CBN        14.2025   -9.2165  -25.4189 C.2         1 MOL       0.1848
     39 OAC        15.2848   -8.9349  -25.9208 O.2         1 MOL      -0.3964
     40 CBC        14.6672   -8.9005  -22.9641 C.3         1 MOL       0.0422
     41 CBS        15.0873  -10.3125  -22.7509 C.2         1 MOL       0.1411
     42 CBA        15.4231  -11.2861  -23.6784 C.2         1 MOL      -0.0269
     43 OBK        15.5164  -10.7545  -21.5367 O.3         1 MOL      -0.1670
     44 NBG        16.0723  -11.9310  -21.6623 N.2         1 MOL      -0.1519
     45 CBU        16.0288  -12.3250  -22.9574 C.2         1 MOL       0.0430
     46 CBT        16.5523  -13.5466  -23.4828 C.ar        1 MOL      -0.0150
     47 CAU        16.3974  -13.9252  -24.8432 C.ar        1 MOL      -0.0551
     48 CAO        16.9333  -15.1355  -25.3304 C.ar        1 MOL      -0.0621
     49 CAJ        17.6111  -16.0015  -24.4581 C.ar        1 MOL      -0.0626
     50 CAP        17.7609  -15.6616  -23.1025 C.ar        1 MOL      -0.0621
     51 CAV        17.2523  -14.4369  -22.6267 C.ar        1 MOL      -0.0551
     52 H1         13.4408   -4.5980  -20.4078 H           1 MOL       0.0557
     53 H2         11.7531   -3.3924  -19.1739 H           1 MOL       0.0599
     54 H3         12.0275   -1.0169  -18.7302 H           1 MOL       0.0559
     55 H4         14.0019    0.1511  -19.5328 H           1 MOL       0.0599
     56 H5         15.6895   -1.0388  -20.7864 H           1 MOL       0.0557
     57 H6         15.8527   -4.6997  -21.1319 H           1 MOL       0.0776
     58 H7         16.7427   -3.1859  -21.2959 H           1 MOL       0.0776
     59 H8         15.2784   -4.0301  -25.3072 H           1 MOL       0.1888
     60 H9         12.3740   -4.2364  -25.2053 H           1 MOL       0.0787
     61 H10        12.9654   -2.7604  -26.9124 H           1 MOL       0.0465
     62 H11        12.4831   -4.2458  -27.6894 H           1 MOL       0.0465
     63 H12        13.9404   -5.1182  -29.3799 H           1 MOL       0.0557
     64 H13        16.0105   -5.0819  -30.6113 H           1 MOL       0.0599
     65 H14        17.8464   -3.6720  -29.8782 H           1 MOL       0.0559
     66 H15        17.5976   -2.2960  -27.8931 H           1 MOL       0.0599
     67 H16        15.5373   -2.3249  -26.6430 H           1 MOL       0.0557
     68 H17        12.5283  -10.2216  -25.5280 H           1 MOL       0.1876
     69 H18        14.7777  -11.1614  -27.1423 H           1 MOL       0.0747
     70 H19        12.3433  -12.3396  -25.7965 H           1 MOL       0.0446
     71 H20        13.9915  -12.9475  -25.8692 H           1 MOL       0.0446
     72 H21        11.0363  -14.1495  -26.5854 H           1 MOL       0.0530
     73 H22        10.4825  -15.8057  -28.2434 H           1 MOL       0.0525
     74 H23        12.3580  -17.1505  -30.1460 H           1 MOL       0.2458
     75 H24        13.9098  -14.7592  -30.4553 H           1 MOL       0.0525
     76 H25        14.4852  -13.1060  -28.7941 H           1 MOL       0.0530
     77 H26        13.0460   -6.5994  -23.5689 H           1 MOL       0.0495
     78 H27        14.7227   -6.5732  -24.1301 H           1 MOL       0.0495
     79 H28        12.7507   -8.8473  -23.9518 H           1 MOL       0.0581
     80 H29        14.1207   -8.5828  -22.0576 H           1 MOL       0.0513
     81 H30        15.5950   -8.3088  -23.0021 H           1 MOL       0.0513
     82 H31        15.2856  -11.2081  -24.6976 H           1 MOL       0.0289
     83 H32        15.8878  -13.3246  -25.4982 H           1 MOL       0.0616
     84 H33        16.8228  -15.3723  -26.3211 H           1 MOL       0.0615
     85 H34        17.9972  -16.8747  -24.8241 H           1 MOL       0.0610
     86 H35        18.2477  -16.2998  -22.4751 H           1 MOL       0.0615
     87 H36        17.4114  -14.2038  -21.6425 H           1 MOL       0.0616
@<TRIPOS>BOND
     1     1     2  ar
     2     6     1  ar
     3     2     3  ar
     4     4     3  ar
     5     5     4  ar
     6     6     5  ar
     7     7     6   1
     8     8     7   1
     9     9     8   1
    10     9    10   2
    11    11     9  am
    12    12    11   1
    13    12    13   1
    14    20    12   1
    15    13    14   1
    16    14    15  ar
    17    14    19  ar
    18    15    16  ar
    19    16    17  ar
    20    18    17  ar
    21    19    18  ar
    22    20    21  ar
    23    20    22  ar
    24    36    20   1
    25    23    24   1
    26    38    23  am
    27    24    25   1
    28    24    28   1
    29    25    26  ar
    30    25    27  ar
    31    28    29   1
    32    29    30  ar
    33    29    35  ar
    34    30    31  ar
    35    31    32  ar
    36    32    33   1
    37    34    32  ar
    38    35    34  ar
    39    37    36   1
    40    37    38   1
    41    37    40   1
    42    38    39   2
    43    40    41   1
    44    41    42   2
    45    41    43   1
    46    42    45   1
    47    43    44   1
    48    44    45   2
    49    45    46   1
    50    46    47  ar
    51    46    51  ar
    52    47    48  ar
    53    48    49  ar
    54    49    50  ar
    55    50    51  ar
    56     1    52   1
    57     2    53   1
    58     3    54   1
    59     4    55   1
    60     5    56   1
    61     7    57   1
    62     7    58   1
    63    11    59   1
    64    12    60   1
    65    13    61   1
    66    13    62   1
    67    15    63   1
    68    16    64   1
    69    17    65   1
    70    18    66   1
    71    19    67   1
    72    23    68   1
    73    24    69   1
    74    28    70   1
    75    28    71   1
    76    30    72   1
    77    31    73   1
    78    33    74   1
    79    34    75   1
    80    35    76   1
    81    36    77   1
    82    36    78   1
    83    37    79   1
    84    40    80   1
    85    40    81   1
    86    42    82   1
    87    47    83   1
    88    48    84   1
    89    49    85   1
    90    50    86   1
    91    51    87   1
@<TRIPOS>SUBSTRUCTURE
     1  MOL      1

