@<TRIPOS>MOLECULE
2xy9_ligand_046
    87    91
SMALL
GAST_HUCK
****
This file was generated by PARSER (from files_GN.cpp)

@<TRIPOS>ATOM
      1 CAQ        19.9570   -5.9817  -34.7217 C.ar        1 MOL      -0.0578
      2 CAK        21.1420   -6.7310  -34.8597 C.ar        1 MOL      -0.0685
      3 CAH        21.6508   -7.4540  -33.7677 C.ar        1 MOL      -0.0687
      4 CAL        20.9667   -7.4392  -32.5404 C.ar        1 MOL      -0.0685
      5 CAR        19.7711   -6.7085  -32.4080 C.ar        1 MOL      -0.0578
      6 CBP        19.2537   -5.9569  -33.4928 C.ar        1 MOL      -0.0130
      7 CBB        17.9717   -5.2103  -33.3605 C.3         1 MOL       0.1113
      8 OBJ        17.8844   -4.5824  -32.0708 O.3         1 MOL      -0.2506
      9 CBM        16.9574   -4.7817  -31.0984 C.2         1 MOL       0.3232
     10 OAB        15.8697   -5.5615  -31.3355 O.2         1 MOL      -0.3774
     11 NBI        17.2300   -4.2699  -29.8780 N.am        1 MOL      -0.2418
     12 CBX        16.5998   -4.5340  -28.6110 C.3         1 MOL       0.1176
     13 CBE        15.1082   -4.0576  -28.5577 C.3         1 MOL       0.0205
     14 CBQ        14.4188   -3.9728  -27.2278 C.ar        1 MOL      -0.0393
     15 CAS        13.0302   -4.2609  -27.1447 C.ar        1 MOL      -0.0602
     16 CAM        12.3488   -4.1873  -25.9167 C.ar        1 MOL      -0.0686
     17 CAI        13.0401   -3.8268  -24.7448 C.ar        1 MOL      -0.0687
     18 CAN        14.4039   -3.4921  -24.8150 C.ar        1 MOL      -0.0686
     19 CAT        15.0827   -3.5406  -26.0503 C.ar        1 MOL      -0.0602
     20 PBY        16.8823   -6.1005  -28.0577 P.3         1 MOL       0.0154
     21 OAG        16.4794   -6.1874  -26.6752 O.co2       1 MOL      -0.6174
     22 OAD        18.3141   -6.2663  -27.9723 O.co2       1 MOL      -0.6174
     23 N          13.9744   -9.4582  -26.7199 N.am        1 MOL      -0.2694
     24 CA         12.7094   -9.4892  -26.0309 C.3         1 MOL       0.1024
     25 C          11.5505   -9.5655  -26.9547 C.2         1 MOL       0.0619
     26 OXT        10.3001   -9.4838  -26.4428 O.co2       1 MOL      -0.5665
     27 O          11.6745  -10.1839  -28.1537 O.co2       1 MOL      -0.5665
     28 CB         12.5604   -8.3440  -24.9762 C.3         1 MOL       0.0108
     29 CG         13.8126   -8.0780  -24.2088 C.ar        1 MOL      -0.0499
     30 CD1        14.3504   -9.0287  -23.3083 C.ar        1 MOL      -0.0686
     31 CE1        15.5803   -8.7887  -22.6615 C.ar        1 MOL      -0.0398
     32 CZ         16.2749   -7.5846  -22.8802 C.ar        1 MOL       0.0805
     33 OH         17.4660   -7.3734  -22.2653 O.3         1 MOL      -0.3376
     34 CE2        15.7449   -6.6259  -23.7645 C.ar        1 MOL      -0.0398
     35 CD2        14.5336   -6.8849  -24.4298 C.ar        1 MOL      -0.0686
     36 CBF        16.2954   -7.4050  -28.9324 C.3         1 MOL       0.0375
     37 CBV        15.7989   -8.6772  -28.1396 C.3         1 MOL       0.0788
     38 CBN        14.4366   -8.5484  -27.5771 C.2         1 MOL       0.1848
     39 OAC        13.7168   -7.6036  -27.8862 O.2         1 MOL      -0.3964
     40 CBC        15.9699   -9.9387  -29.0643 C.3         1 MOL       0.0422
     41 CBS        15.4588  -11.2309  -28.5758 C.2         1 MOL       0.1411
     42 CBA        14.7079  -12.1314  -29.3250 C.2         1 MOL      -0.0269
     43 OBK        15.5285  -11.7221  -27.3103 O.3         1 MOL      -0.1670
     44 NBG        14.8350  -12.8299  -27.2378 N.2         1 MOL      -0.1519
     45 CBU        14.3016  -13.1253  -28.4470 C.2         1 MOL       0.0430
     46 CBT        13.3856  -14.1593  -28.7332 C.ar        1 MOL      -0.0150
     47 CAU        13.4686  -14.8997  -29.9403 C.ar        1 MOL      -0.0551
     48 CAO        12.5336  -15.9160  -30.2245 C.ar        1 MOL      -0.0621
     49 CAJ        11.4910  -16.1831  -29.3208 C.ar        1 MOL      -0.0626
     50 CAP        11.3795  -15.4440  -28.1320 C.ar        1 MOL      -0.0621
     51 CAV        12.3265  -14.4429  -27.8316 C.ar        1 MOL      -0.0551
     52 H1         19.5997   -5.4705  -35.5331 H           1 MOL       0.0557
     53 H2         21.6299   -6.7528  -35.7571 H           1 MOL       0.0599
     54 H3         22.5146   -7.9915  -33.8672 H           1 MOL       0.0559
     55 H4         21.3358   -7.9651  -31.7447 H           1 MOL       0.0599
     56 H5         19.2829   -6.7261  -31.5091 H           1 MOL       0.0557
     57 H6         17.1497   -5.9126  -33.5194 H           1 MOL       0.0776
     58 H7         17.8872   -4.4303  -34.1194 H           1 MOL       0.0776
     59 H8         17.9996   -3.6783  -29.8380 H           1 MOL       0.1888
     60 H9         17.1510   -3.8927  -27.9155 H           1 MOL       0.0787
     61 H10        14.5324   -4.7051  -29.2256 H           1 MOL       0.0465
     62 H11        15.0628   -3.0534  -28.9909 H           1 MOL       0.0465
     63 H12        12.4986   -4.5199  -27.9834 H           1 MOL       0.0557
     64 H13        11.3516   -4.4028  -25.8677 H           1 MOL       0.0599
     65 H14        12.5575   -3.8134  -23.8439 H           1 MOL       0.0559
     66 H15        14.9100   -3.2191  -23.9704 H           1 MOL       0.0599
     67 H16        16.0739   -3.2791  -26.0807 H           1 MOL       0.0557
     68 H17        14.5829  -10.1774  -26.4837 H           1 MOL       0.1876
     69 H18        12.6959  -10.4261  -25.4708 H           1 MOL       0.0747
     70 H19        11.7726   -8.6115  -24.2675 H           1 MOL       0.0446
     71 H20        12.2245   -7.4329  -25.4862 H           1 MOL       0.0446
     72 H21        13.8613   -9.9086  -23.1366 H           1 MOL       0.0530
     73 H22        15.9714   -9.4961  -22.0371 H           1 MOL       0.0525
     74 H23        17.5315   -6.4112  -22.0814 H           1 MOL       0.2458
     75 H24        16.2545   -5.7599  -23.9505 H           1 MOL       0.0525
     76 H25        14.1971   -6.2113  -25.1148 H           1 MOL       0.0530
     77 H26        17.1041   -7.6785  -29.6233 H           1 MOL       0.0495
     78 H27        15.4770   -7.0551  -29.5647 H           1 MOL       0.0495
     79 H28        16.4806   -8.8194  -27.2956 H           1 MOL       0.0581
     80 H29        17.0348  -10.0809  -29.2465 H           1 MOL       0.0513
     81 H30        15.5026   -9.7187  -30.0264 H           1 MOL       0.0513
     82 H31        14.4342  -12.0301  -30.3002 H           1 MOL       0.0289
     83 H32        14.2187  -14.7133  -30.6104 H           1 MOL       0.0616
     84 H33        12.6162  -16.4573  -31.0874 H           1 MOL       0.0615
     85 H34        10.8182  -16.9235  -29.5239 H           1 MOL       0.0610
     86 H35        10.6170  -15.6298  -27.4814 H           1 MOL       0.0615
     87 H36        12.2240  -13.9056  -26.9675 H           1 MOL       0.0616
@<TRIPOS>BOND
     1     1     2  ar
     2     6     1  ar
     3     2     3  ar
     4     4     3  ar
     5     5     4  ar
     6     6     5  ar
     7     7     6   1
     8     8     7   1
     9     9     8   1
    10     9    10   2
    11    11     9  am
    12    12    11   1
    13    12    13   1
    14    20    12   1
    15    13    14   1
    16    14    15  ar
    17    14    19  ar
    18    15    16  ar
    19    16    17  ar
    20    18    17  ar
    21    19    18  ar
    22    20    21  ar
    23    20    22  ar
    24    36    20   1
    25    23    24   1
    26    38    23  am
    27    24    25   1
    28    24    28   1
    29    25    26  ar
    30    25    27  ar
    31    28    29   1
    32    29    30  ar
    33    29    35  ar
    34    30    31  ar
    35    31    32  ar
    36    32    33   1
    37    34    32  ar
    38    35    34  ar
    39    37    36   1
    40    37    38   1
    41    37    40   1
    42    38    39   2
    43    40    41   1
    44    41    42   2
    45    41    43   1
    46    42    45   1
    47    43    44   1
    48    44    45   2
    49    45    46   1
    50    46    47  ar
    51    46    51  ar
    52    47    48  ar
    53    48    49  ar
    54    49    50  ar
    55    50    51  ar
    56     1    52   1
    57     2    53   1
    58     3    54   1
    59     4    55   1
    60     5    56   1
    61     7    57   1
    62     7    58   1
    63    11    59   1
    64    12    60   1
    65    13    61   1
    66    13    62   1
    67    15    63   1
    68    16    64   1
    69    17    65   1
    70    18    66   1
    71    19    67   1
    72    23    68   1
    73    24    69   1
    74    28    70   1
    75    28    71   1
    76    30    72   1
    77    31    73   1
    78    33    74   1
    79    34    75   1
    80    35    76   1
    81    36    77   1
    82    36    78   1
    83    37    79   1
    84    40    80   1
    85    40    81   1
    86    42    82   1
    87    47    83   1
    88    48    84   1
    89    49    85   1
    90    50    86   1
    91    51    87   1
@<TRIPOS>SUBSTRUCTURE
     1  MOL      1

