@<TRIPOS>MOLECULE
2xy9_ligand_069
    87    91
SMALL
GAST_HUCK
****
This file was generated by PARSER (from files_GN.cpp)

@<TRIPOS>ATOM
      1 CAQ        17.4569  -11.1193  -22.8474 C.ar        1 MOL      -0.0578
      2 CAK        18.4561  -12.0616  -22.5487 C.ar        1 MOL      -0.0685
      3 CAH        18.3040  -12.9294  -21.4513 C.ar        1 MOL      -0.0687
      4 CAL        17.1596  -12.8371  -20.6397 C.ar        1 MOL      -0.0685
      5 CAR        16.1481  -11.9095  -20.9517 C.ar        1 MOL      -0.0578
      6 CBP        16.2778  -11.0539  -22.0708 C.ar        1 MOL      -0.0130
      7 CBB        15.1948  -10.1081  -22.4393 C.3         1 MOL       0.1113
      8 OBJ        14.9442  -10.0484  -23.8447 O.3         1 MOL      -0.2506
      9 CBM        14.6330  -11.0367  -24.7173 C.2         1 MOL       0.3232
     10 OAB        14.5610  -12.3359  -24.3371 O.2         1 MOL      -0.3774
     11 NBI        14.3890  -10.6223  -25.9719 N.am        1 MOL      -0.2418
     12 CBX        13.9456  -11.4019  -27.0958 C.3         1 MOL       0.1176
     13 CBE        12.3902  -11.5830  -27.1105 C.3         1 MOL       0.0205
     14 CBQ        11.8256  -12.0585  -25.8130 C.ar        1 MOL      -0.0393
     15 CAS        11.3365  -11.1270  -24.8644 C.ar        1 MOL      -0.0602
     16 CAM        10.9004  -11.5543  -23.5976 C.ar        1 MOL      -0.0686
     17 CAI        10.9430  -12.9186  -23.2607 C.ar        1 MOL      -0.0687
     18 CAN        11.3944  -13.8606  -24.2040 C.ar        1 MOL      -0.0686
     19 CAT        11.8350  -13.4334  -25.4706 C.ar        1 MOL      -0.0602
     20 PBY        14.5382  -10.6458  -28.4766 P.3         1 MOL       0.0154
     21 OAG        14.0708  -11.3591  -29.6415 O.co2       1 MOL      -0.6174
     22 OAD        15.9620  -10.8705  -28.5017 O.co2       1 MOL      -0.6174
     23 N          14.3069   -6.0749  -27.8006 N.am        1 MOL      -0.2694
     24 CA         13.4539   -5.0118  -27.3507 C.3         1 MOL       0.1024
     25 C          12.0673   -5.5313  -27.3032 C.2         1 MOL       0.0619
     26 OXT        11.7215   -6.4547  -26.3767 O.co2       1 MOL      -0.5665
     27 O          11.1671   -5.2552  -28.2756 O.co2       1 MOL      -0.5665
     28 CB         13.5560   -3.6402  -28.0867 C.3         1 MOL       0.0108
     29 CG         14.7992   -2.8277  -27.9618 C.ar        1 MOL      -0.0499
     30 CD1        14.7322   -1.4604  -28.3283 C.ar        1 MOL      -0.0686
     31 CE1        15.8370   -0.6068  -28.1608 C.ar        1 MOL      -0.0398
     32 CZ         17.0425   -1.1149  -27.6519 C.ar        1 MOL       0.0805
     33 OH         18.0800   -0.2687  -27.4355 O.3         1 MOL      -0.3376
     34 CE2        17.1488   -2.4867  -27.3510 C.ar        1 MOL      -0.0398
     35 CD2        16.0366   -3.3344  -27.4979 C.ar        1 MOL      -0.0686
     36 CBF        14.1088   -9.0214  -28.5826 C.3         1 MOL       0.0375
     37 CBV        15.0935   -7.9299  -29.1434 C.3         1 MOL       0.0788
     38 CBN        14.4265   -6.6263  -29.0064 C.2         1 MOL       0.1848
     39 OAC        13.8796   -6.1271  -29.9913 O.2         1 MOL      -0.3964
     40 CBC        16.5483   -7.8771  -28.5439 C.3         1 MOL       0.0422
     41 CBS        17.5368   -7.3618  -29.5147 C.2         1 MOL       0.1411
     42 CBA        18.5594   -8.0788  -30.1190 C.2         1 MOL      -0.0269
     43 OBK        17.5753   -6.1085  -30.0163 O.3         1 MOL      -0.1670
     44 NBG        18.5508   -6.0200  -30.8873 N.2         1 MOL      -0.1519
     45 CBU        19.1875   -7.2053  -31.0063 C.2         1 MOL       0.0430
     46 CBT        20.2799   -7.4642  -31.8889 C.ar        1 MOL      -0.0150
     47 CAU        20.8184   -8.7702  -32.0568 C.ar        1 MOL      -0.0551
     48 CAO        21.8964   -9.0063  -32.9284 C.ar        1 MOL      -0.0621
     49 CAJ        22.4617   -7.9438  -33.6543 C.ar        1 MOL      -0.0626
     50 CAP        21.9396   -6.6464  -33.5146 C.ar        1 MOL      -0.0621
     51 CAV        20.8603   -6.4115  -32.6436 C.ar        1 MOL      -0.0551
     52 H1         17.5851  -10.5021  -23.6520 H           1 MOL       0.0557
     53 H2         19.2942  -12.1125  -23.1328 H           1 MOL       0.0599
     54 H3         19.0243  -13.6231  -21.2402 H           1 MOL       0.0559
     55 H4         17.0565  -13.4543  -19.8321 H           1 MOL       0.0599
     56 H5         15.3185  -11.8605  -20.3521 H           1 MOL       0.0557
     57 H6         15.4887   -9.1064  -22.1222 H           1 MOL       0.0776
     58 H7         14.2566  -10.3594  -21.9395 H           1 MOL       0.0776
     59 H8         14.4794   -9.6667  -26.1029 H           1 MOL       0.1888
     60 H9         14.4009  -12.3969  -27.0470 H           1 MOL       0.0787
     61 H10        12.1089  -12.2993  -27.8905 H           1 MOL       0.0465
     62 H11        11.9083  -10.6376  -27.3837 H           1 MOL       0.0465
     63 H12        11.3232  -10.1283  -25.0801 H           1 MOL       0.0557
     64 H13        10.5590  -10.8706  -22.9168 H           1 MOL       0.0599
     65 H14        10.6403  -13.2254  -22.3338 H           1 MOL       0.0559
     66 H15        11.4096  -14.8546  -23.9618 H           1 MOL       0.0599
     67 H16        12.1803  -14.1293  -26.1349 H           1 MOL       0.0557
     68 H17        14.7924   -6.5218  -27.0894 H           1 MOL       0.1876
     69 H18        13.7345   -4.8142  -26.3107 H           1 MOL       0.0747
     70 H19        12.7443   -3.0241  -27.6805 H           1 MOL       0.0446
     71 H20        13.3541   -3.7801  -29.1481 H           1 MOL       0.0446
     72 H21        13.8647   -1.0701  -28.7047 H           1 MOL       0.0530
     73 H22        15.7573    0.3860  -28.3971 H           1 MOL       0.0525
     74 H23        18.7318   -0.7846  -26.9123 H           1 MOL       0.2458
     75 H24        18.0330   -2.8691  -27.0050 H           1 MOL       0.0525
     76 H25        16.1495   -4.3186  -27.2589 H           1 MOL       0.0530
     77 H26        13.7842   -8.6930  -27.5958 H           1 MOL       0.0495
     78 H27        13.2108   -9.0004  -29.2092 H           1 MOL       0.0495
     79 H28        15.1902   -8.1704  -30.2092 H           1 MOL       0.0581
     80 H29        16.8726   -8.8717  -28.2333 H           1 MOL       0.0513
     81 H30        16.6004   -7.2526  -27.6522 H           1 MOL       0.0513
     82 H31        18.7871   -9.0607  -29.9437 H           1 MOL       0.0289
     83 H32        20.4244   -9.5672  -31.5561 H           1 MOL       0.0616
     84 H33        22.2688   -9.9522  -33.0375 H           1 MOL       0.0615
     85 H34        23.2513   -8.1153  -34.2858 H           1 MOL       0.0610
     86 H35        22.3458   -5.8759  -34.0518 H           1 MOL       0.0615
     87 H36        20.5004   -5.4565  -32.5674 H           1 MOL       0.0616
@<TRIPOS>BOND
     1     1     2  ar
     2     6     1  ar
     3     2     3  ar
     4     4     3  ar
     5     5     4  ar
     6     6     5  ar
     7     7     6   1
     8     8     7   1
     9     9     8   1
    10     9    10   2
    11    11     9  am
    12    12    11   1
    13    12    13   1
    14    20    12   1
    15    13    14   1
    16    14    15  ar
    17    14    19  ar
    18    15    16  ar
    19    16    17  ar
    20    18    17  ar
    21    19    18  ar
    22    20    21  ar
    23    20    22  ar
    24    36    20   1
    25    23    24   1
    26    38    23  am
    27    24    25   1
    28    24    28   1
    29    25    26  ar
    30    25    27  ar
    31    28    29   1
    32    29    30  ar
    33    29    35  ar
    34    30    31  ar
    35    31    32  ar
    36    32    33   1
    37    34    32  ar
    38    35    34  ar
    39    37    36   1
    40    37    38   1
    41    37    40   1
    42    38    39   2
    43    40    41   1
    44    41    42   2
    45    41    43   1
    46    42    45   1
    47    43    44   1
    48    44    45   2
    49    45    46   1
    50    46    47  ar
    51    46    51  ar
    52    47    48  ar
    53    48    49  ar
    54    49    50  ar
    55    50    51  ar
    56     1    52   1
    57     2    53   1
    58     3    54   1
    59     4    55   1
    60     5    56   1
    61     7    57   1
    62     7    58   1
    63    11    59   1
    64    12    60   1
    65    13    61   1
    66    13    62   1
    67    15    63   1
    68    16    64   1
    69    17    65   1
    70    18    66   1
    71    19    67   1
    72    23    68   1
    73    24    69   1
    74    28    70   1
    75    28    71   1
    76    30    72   1
    77    31    73   1
    78    33    74   1
    79    34    75   1
    80    35    76   1
    81    36    77   1
    82    36    78   1
    83    37    79   1
    84    40    80   1
    85    40    81   1
    86    42    82   1
    87    47    83   1
    88    48    84   1
    89    49    85   1
    90    50    86   1
    91    51    87   1
@<TRIPOS>SUBSTRUCTURE
     1  MOL      1

