@<TRIPOS>MOLECULE
2xy9_ligand_002
    87    91
SMALL
GAST_HUCK
****
This file was generated by PARSER (from files_GN.cpp)

@<TRIPOS>ATOM
      1 CAQ        13.6307  -13.7254  -26.7426 C.ar        1 MOL      -0.0578
      2 CAK        13.3012  -13.5511  -28.1004 C.ar        1 MOL      -0.0685
      3 CAH        11.9939  -13.8164  -28.5423 C.ar        1 MOL      -0.0687
      4 CAL        11.0106  -14.2251  -27.6246 C.ar        1 MOL      -0.0685
      5 CAR        11.3337  -14.3669  -26.2589 C.ar        1 MOL      -0.0578
      6 CBP        12.6553  -14.1340  -25.7997 C.ar        1 MOL      -0.0130
      7 CBB        13.0303  -14.3505  -24.3714 C.3         1 MOL       0.1113
      8 OBJ        13.4206  -13.1278  -23.7514 O.3         1 MOL      -0.2506
      9 CBM        14.6448  -12.5399  -23.7406 C.2         1 MOL       0.3232
     10 OAB        15.7270  -13.1205  -24.3038 O.2         1 MOL      -0.3774
     11 NBI        14.6238  -11.2383  -23.3756 N.am        1 MOL      -0.2418
     12 CBX        15.4833  -10.2299  -23.9143 C.3         1 MOL       0.1176
     13 CBE        15.3507  -10.1147  -25.4815 C.3         1 MOL       0.0205
     14 CBQ        14.0228  -10.0154  -26.1818 C.ar        1 MOL      -0.0393
     15 CAS        14.0318   -9.8096  -27.5856 C.ar        1 MOL      -0.0602
     16 CAM        12.8376   -9.6759  -28.3178 C.ar        1 MOL      -0.0686
     17 CAI        11.5965   -9.7690  -27.6609 C.ar        1 MOL      -0.0687
     18 CAN        11.5567   -9.9895  -26.2774 C.ar        1 MOL      -0.0686
     19 CAT        12.7525  -10.1152  -25.5484 C.ar        1 MOL      -0.0602
     20 PBY        15.1848   -8.7925  -23.1044 P.3         1 MOL       0.0154
     21 OAG        15.0699   -9.0957  -21.6980 O.co2       1 MOL      -0.6174
     22 OAD        13.8823   -8.2943  -23.4733 O.co2       1 MOL      -0.6174
     23 N          13.8802   -5.4660  -23.9630 N.am        1 MOL      -0.2694
     24 CA         12.9377   -4.9675  -24.9272 C.3         1 MOL       0.1024
     25 C          12.3008   -6.1028  -25.6139 C.2         1 MOL       0.0619
     26 OXT        11.0563   -5.9443  -26.1175 O.co2       1 MOL      -0.5665
     27 O          13.0916   -7.0247  -26.2159 O.co2       1 MOL      -0.5665
     28 CB         13.3480   -3.7763  -25.8730 C.3         1 MOL       0.0108
     29 CG         13.9429   -4.0843  -27.2117 C.ar        1 MOL      -0.0499
     30 CD1        15.2794   -3.7257  -27.5219 C.ar        1 MOL      -0.0686
     31 CE1        15.8289   -4.0097  -28.7881 C.ar        1 MOL      -0.0398
     32 CZ         15.0515   -4.6395  -29.7795 C.ar        1 MOL       0.0805
     33 OH         15.6041   -4.9153  -30.9871 O.3         1 MOL      -0.3376
     34 CE2        13.7110   -4.9656  -29.4974 C.ar        1 MOL      -0.0398
     35 CD2        13.1577   -4.6730  -28.2382 C.ar        1 MOL      -0.0686
     36 CBF        16.3862   -7.6354  -23.2455 C.3         1 MOL       0.0375
     37 CBV        16.0107   -6.1416  -22.9463 C.3         1 MOL       0.0788
     38 CBN        15.2025   -5.5772  -24.0394 C.2         1 MOL       0.1848
     39 OAC        15.7859   -5.2893  -25.0768 O.2         1 MOL      -0.3964
     40 CBC        15.4723   -5.9199  -21.4895 C.3         1 MOL       0.0422
     41 CBS        15.3059   -4.4984  -21.1203 C.2         1 MOL       0.1411
     42 CBA        15.9220   -3.7995  -20.0926 C.2         1 MOL      -0.0269
     43 OBK        14.4715   -3.6351  -21.7411 O.3         1 MOL      -0.1670
     44 NBG        14.5470   -2.4679  -21.1670 N.2         1 MOL      -0.1519
     45 CBU        15.4234   -2.4987  -20.1421 C.2         1 MOL       0.0430
     46 CBT        15.7418   -1.3816  -19.3195 C.ar        1 MOL      -0.0150
     47 CAU        16.8253   -1.4086  -18.4055 C.ar        1 MOL      -0.0551
     48 CAO        17.1556   -0.2774  -17.6359 C.ar        1 MOL      -0.0621
     49 CAJ        16.4012    0.9023  -17.7596 C.ar        1 MOL      -0.0626
     50 CAP        15.3106    0.9456  -18.6442 C.ar        1 MOL      -0.0621
     51 CAV        14.9838   -0.1854  -19.4139 C.ar        1 MOL      -0.0551
     52 H1         14.5969  -13.5546  -26.4556 H           1 MOL       0.0557
     53 H2         14.0185  -13.2480  -28.7646 H           1 MOL       0.0599
     54 H3         11.7592  -13.7238  -29.5345 H           1 MOL       0.0559
     55 H4         10.0622  -14.4172  -27.9478 H           1 MOL       0.0599
     56 H5         10.6023  -14.6677  -25.6094 H           1 MOL       0.0557
     57 H6         13.8211  -15.0995  -24.3054 H           1 MOL       0.0776
     58 H7         12.1733  -14.7192  -23.8022 H           1 MOL       0.0776
     59 H8         13.8188  -10.9414  -22.9312 H           1 MOL       0.1888
     60 H9         16.5185  -10.5007  -23.6779 H           1 MOL       0.0787
     61 H10        15.8442  -10.9900  -25.9027 H           1 MOL       0.0465
     62 H11        15.9473   -9.2567  -25.8047 H           1 MOL       0.0465
     63 H12        14.9214   -9.7315  -28.0893 H           1 MOL       0.0557
     64 H13        12.8691   -9.4959  -29.3235 H           1 MOL       0.0599
     65 H14        10.7241   -9.6687  -28.1902 H           1 MOL       0.0559
     66 H15        10.6560  -10.0438  -25.7935 H           1 MOL       0.0599
     67 H16        12.6679  -10.2642  -24.5493 H           1 MOL       0.0557
     68 H17        13.4763   -5.8237  -23.1504 H           1 MOL       0.1876
     69 H18        12.1642   -4.5407  -24.2826 H           1 MOL       0.0747
     70 H19        14.0160   -3.1247  -25.3070 H           1 MOL       0.0446
     71 H20        12.4475   -3.1754  -26.0738 H           1 MOL       0.0446
     72 H21        15.8633   -3.2499  -26.8262 H           1 MOL       0.0530
     73 H22        16.7969   -3.7570  -28.9851 H           1 MOL       0.0525
     74 H23        14.8546   -4.9277  -31.6202 H           1 MOL       0.2458
     75 H24        13.1258   -5.4133  -30.2128 H           1 MOL       0.0525
     76 H25        12.1665   -4.8938  -28.0723 H           1 MOL       0.0530
     77 H26        16.7973   -7.6930  -24.2575 H           1 MOL       0.0495
     78 H27        17.1986   -7.9259  -22.5762 H           1 MOL       0.0495
     79 H28        16.9621   -5.5941  -22.9684 H           1 MOL       0.0581
     80 H29        16.1646   -6.3840  -20.7825 H           1 MOL       0.0513
     81 H30        14.5037   -6.4075  -21.3619 H           1 MOL       0.0513
     82 H31        16.5977   -4.1831  -19.4268 H           1 MOL       0.0289
     83 H32        17.4080   -2.2428  -18.3091 H           1 MOL       0.0616
     84 H33        17.9503   -0.3104  -16.9930 H           1 MOL       0.0615
     85 H34        16.6434    1.7262  -17.2053 H           1 MOL       0.0610
     86 H35        14.7561    1.8002  -18.7324 H           1 MOL       0.0615
     87 H36        14.1832   -0.1233  -20.0480 H           1 MOL       0.0616
@<TRIPOS>BOND
     1     1     2  ar
     2     6     1  ar
     3     2     3  ar
     4     4     3  ar
     5     5     4  ar
     6     6     5  ar
     7     7     6   1
     8     8     7   1
     9     9     8   1
    10     9    10   2
    11    11     9  am
    12    12    11   1
    13    12    13   1
    14    20    12   1
    15    13    14   1
    16    14    15  ar
    17    14    19  ar
    18    15    16  ar
    19    16    17  ar
    20    18    17  ar
    21    19    18  ar
    22    20    21  ar
    23    20    22  ar
    24    36    20   1
    25    23    24   1
    26    38    23  am
    27    24    25   1
    28    24    28   1
    29    25    26  ar
    30    25    27  ar
    31    28    29   1
    32    29    30  ar
    33    29    35  ar
    34    30    31  ar
    35    31    32  ar
    36    32    33   1
    37    34    32  ar
    38    35    34  ar
    39    37    36   1
    40    37    38   1
    41    37    40   1
    42    38    39   2
    43    40    41   1
    44    41    42   2
    45    41    43   1
    46    42    45   1
    47    43    44   1
    48    44    45   2
    49    45    46   1
    50    46    47  ar
    51    46    51  ar
    52    47    48  ar
    53    48    49  ar
    54    49    50  ar
    55    50    51  ar
    56     1    52   1
    57     2    53   1
    58     3    54   1
    59     4    55   1
    60     5    56   1
    61     7    57   1
    62     7    58   1
    63    11    59   1
    64    12    60   1
    65    13    61   1
    66    13    62   1
    67    15    63   1
    68    16    64   1
    69    17    65   1
    70    18    66   1
    71    19    67   1
    72    23    68   1
    73    24    69   1
    74    28    70   1
    75    28    71   1
    76    30    72   1
    77    31    73   1
    78    33    74   1
    79    34    75   1
    80    35    76   1
    81    36    77   1
    82    36    78   1
    83    37    79   1
    84    40    80   1
    85    40    81   1
    86    42    82   1
    87    47    83   1
    88    48    84   1
    89    49    85   1
    90    50    86   1
    91    51    87   1
@<TRIPOS>SUBSTRUCTURE
     1  MOL      1

