@<TRIPOS>MOLECULE
2xy9_ligand_017
    87    91
SMALL
GAST_HUCK
****
This file was generated by PARSER (from files_GN.cpp)

@<TRIPOS>ATOM
      1 CAQ        16.5732    3.9460  -18.3306 C.ar        1 MOL      -0.0578
      2 CAK        16.0175    5.2339  -18.4364 C.ar        1 MOL      -0.0685
      3 CAH        16.1771    6.1557  -17.3894 C.ar        1 MOL      -0.0687
      4 CAL        16.9152    5.7966  -16.2438 C.ar        1 MOL      -0.0685
      5 CAR        17.4708    4.5085  -16.1413 C.ar        1 MOL      -0.0578
      6 CBP        17.2969    3.5548  -17.1747 C.ar        1 MOL      -0.0130
      7 CBB        17.8613    2.1847  -17.0314 C.3         1 MOL       0.1113
      8 OBJ        17.2385    1.2657  -17.9362 O.3         1 MOL      -0.2506
      9 CBM        16.4236    0.2184  -17.6608 C.2         1 MOL       0.3232
     10 OAB        16.1391   -0.1430  -16.3930 O.2         1 MOL      -0.3774
     11 NBI        15.8649   -0.3890  -18.7254 N.am        1 MOL      -0.2418
     12 CBX        14.9251   -1.4718  -18.6952 C.3         1 MOL       0.1176
     13 CBE        13.5668   -1.0396  -18.0373 C.3         1 MOL       0.0205
     14 CBQ        13.5144   -1.2766  -16.5691 C.ar        1 MOL      -0.0393
     15 CAS        13.6228   -2.5927  -16.0584 C.ar        1 MOL      -0.0602
     16 CAM        13.5968   -2.8392  -14.6746 C.ar        1 MOL      -0.0686
     17 CAI        13.4500   -1.7643  -13.7741 C.ar        1 MOL      -0.0687
     18 CAN        13.3193   -0.4532  -14.2641 C.ar        1 MOL      -0.0686
     19 CAT        13.3459   -0.2101  -15.6494 C.ar        1 MOL      -0.0602
     20 PBY        14.7315   -2.0409  -20.2611 P.3         1 MOL       0.0154
     21 OAG        16.0332   -2.1300  -20.8618 O.co2       1 MOL      -0.6174
     22 OAD        14.0411   -1.0465  -21.0377 O.co2       1 MOL      -0.6174
     23 N          13.1948   -5.0420  -23.5539 N.am        1 MOL      -0.2694
     24 CA         12.6965   -4.7971  -24.8854 C.3         1 MOL       0.1024
     25 C          11.8861   -5.9596  -25.3228 C.2         1 MOL       0.0619
     26 OXT        10.9578   -5.7874  -26.2862 O.co2       1 MOL      -0.5665
     27 O          12.2700   -7.2291  -25.0504 O.co2       1 MOL      -0.5665
     28 CB         13.7900   -4.3383  -25.9191 C.3         1 MOL       0.0108
     29 CG         14.0596   -5.2085  -27.1006 C.ar        1 MOL      -0.0499
     30 CD1        14.7047   -6.4531  -26.9324 C.ar        1 MOL      -0.0686
     31 CE1        15.0064   -7.2656  -28.0456 C.ar        1 MOL      -0.0398
     32 CZ         14.6870   -6.8295  -29.3433 C.ar        1 MOL       0.0805
     33 OH         14.9859   -7.6051  -30.4146 O.3         1 MOL      -0.3376
     34 CE2        14.0342   -5.5968  -29.5258 C.ar        1 MOL      -0.0398
     35 CD2        13.7253   -4.7895  -28.4106 C.ar        1 MOL      -0.0686
     36 CBF        13.8962   -3.4996  -20.3282 C.3         1 MOL       0.0375
     37 CBV        14.2399   -4.5751  -21.4215 C.3         1 MOL       0.0788
     38 CBN        13.8676   -4.1887  -22.7879 C.2         1 MOL       0.1848
     39 OAC        14.2481   -3.1150  -23.2388 O.2         1 MOL      -0.3964
     40 CBC        15.7096   -5.0973  -21.3429 C.3         1 MOL       0.0422
     41 CBS        15.9523   -6.3640  -22.0482 C.2         1 MOL       0.1411
     42 CBA        15.2940   -7.5762  -21.8662 C.2         1 MOL      -0.0269
     43 OBK        16.8945   -6.5614  -22.9947 O.3         1 MOL      -0.1670
     44 NBG        16.8531   -7.8008  -23.4012 N.2         1 MOL      -0.1519
     45 CBU        15.8865   -8.4766  -22.7488 C.2         1 MOL       0.0430
     46 CBT        15.5514   -9.8372  -22.9777 C.ar        1 MOL      -0.0150
     47 CAU        14.2587  -10.3352  -22.6798 C.ar        1 MOL      -0.0551
     48 CAO        13.9214  -11.6719  -22.9680 C.ar        1 MOL      -0.0621
     49 CAJ        14.8737  -12.5343  -23.5297 C.ar        1 MOL      -0.0626
     50 CAP        16.1628  -12.0644  -23.8182 C.ar        1 MOL      -0.0621
     51 CAV        16.4984  -10.7214  -23.5523 C.ar        1 MOL      -0.0551
     52 H1         16.4487    3.3014  -19.1135 H           1 MOL       0.0557
     53 H2         15.4983    5.4965  -19.2808 H           1 MOL       0.0599
     54 H3         15.7636    7.0871  -17.4630 H           1 MOL       0.0559
     55 H4         17.0435    6.4760  -15.4890 H           1 MOL       0.0599
     56 H5         18.0007    4.2682  -15.2973 H           1 MOL       0.0557
     57 H6         17.7370    1.8472  -15.9981 H           1 MOL       0.0776
     58 H7         18.9300    2.2119  -17.2531 H           1 MOL       0.0776
     59 H8         16.1289   -0.0539  -19.5967 H           1 MOL       0.1888
     60 H9         15.3802   -2.2992  -18.1419 H           1 MOL       0.0787
     61 H10        12.7180   -1.5839  -18.4575 H           1 MOL       0.0465
     62 H11        13.3882    0.0123  -18.2624 H           1 MOL       0.0465
     63 H12        13.7233   -3.3871  -16.6977 H           1 MOL       0.0557
     64 H13        13.6949   -3.7962  -14.3198 H           1 MOL       0.0599
     65 H14        13.4483   -1.9439  -12.7649 H           1 MOL       0.0559
     66 H15        13.2069    0.3229  -13.6072 H           1 MOL       0.0599
     67 H16        13.2554    0.7516  -15.9821 H           1 MOL       0.0557
     68 H17        12.9480   -5.8871  -23.1407 H           1 MOL       0.1876
     69 H18        11.9759   -3.9736  -24.7719 H           1 MOL       0.0747
     70 H19        14.7459   -4.1942  -25.4114 H           1 MOL       0.0446
     71 H20        13.5009   -3.3425  -26.2736 H           1 MOL       0.0446
     72 H21        14.9615   -6.7805  -25.9988 H           1 MOL       0.0530
     73 H22        15.4721   -8.1659  -27.9063 H           1 MOL       0.0525
     74 H23        15.8504   -7.2619  -30.7281 H           1 MOL       0.2458
     75 H24        13.7830   -5.2769  -30.4659 H           1 MOL       0.0525
     76 H25        13.2542   -3.8974  -28.5672 H           1 MOL       0.0530
     77 H26        12.8297   -3.2578  -20.4135 H           1 MOL       0.0495
     78 H27        14.0209   -3.9806  -19.3539 H           1 MOL       0.0495
     79 H28        13.6025   -5.4221  -21.1377 H           1 MOL       0.0581
     80 H29        15.9883   -5.2433  -20.3006 H           1 MOL       0.0513
     81 H30        16.3873   -4.3560  -21.7637 H           1 MOL       0.0513
     82 H31        14.5417   -7.7665  -21.2065 H           1 MOL       0.0289
     83 H32        13.5415   -9.7245  -22.2789 H           1 MOL       0.0616
     84 H33        12.9765  -12.0071  -22.7706 H           1 MOL       0.0615
     85 H34        14.6278  -13.5056  -23.7284 H           1 MOL       0.0610
     86 H35        16.8590  -12.6872  -24.2255 H           1 MOL       0.0615
     87 H36        17.4440  -10.3997  -23.7728 H           1 MOL       0.0616
@<TRIPOS>BOND
     1     1     2  ar
     2     6     1  ar
     3     2     3  ar
     4     4     3  ar
     5     5     4  ar
     6     6     5  ar
     7     7     6   1
     8     8     7   1
     9     9     8   1
    10     9    10   2
    11    11     9  am
    12    12    11   1
    13    12    13   1
    14    20    12   1
    15    13    14   1
    16    14    15  ar
    17    14    19  ar
    18    15    16  ar
    19    16    17  ar
    20    18    17  ar
    21    19    18  ar
    22    20    21  ar
    23    20    22  ar
    24    36    20   1
    25    23    24   1
    26    38    23  am
    27    24    25   1
    28    24    28   1
    29    25    26  ar
    30    25    27  ar
    31    28    29   1
    32    29    30  ar
    33    29    35  ar
    34    30    31  ar
    35    31    32  ar
    36    32    33   1
    37    34    32  ar
    38    35    34  ar
    39    37    36   1
    40    37    38   1
    41    37    40   1
    42    38    39   2
    43    40    41   1
    44    41    42   2
    45    41    43   1
    46    42    45   1
    47    43    44   1
    48    44    45   2
    49    45    46   1
    50    46    47  ar
    51    46    51  ar
    52    47    48  ar
    53    48    49  ar
    54    49    50  ar
    55    50    51  ar
    56     1    52   1
    57     2    53   1
    58     3    54   1
    59     4    55   1
    60     5    56   1
    61     7    57   1
    62     7    58   1
    63    11    59   1
    64    12    60   1
    65    13    61   1
    66    13    62   1
    67    15    63   1
    68    16    64   1
    69    17    65   1
    70    18    66   1
    71    19    67   1
    72    23    68   1
    73    24    69   1
    74    28    70   1
    75    28    71   1
    76    30    72   1
    77    31    73   1
    78    33    74   1
    79    34    75   1
    80    35    76   1
    81    36    77   1
    82    36    78   1
    83    37    79   1
    84    40    80   1
    85    40    81   1
    86    42    82   1
    87    47    83   1
    88    48    84   1
    89    49    85   1
    90    50    86   1
    91    51    87   1
@<TRIPOS>SUBSTRUCTURE
     1  MOL      1

