@<TRIPOS>MOLECULE
2xy9_ligand_005
    87    91
SMALL
GAST_HUCK
****
This file was generated by PARSER (from files_GN.cpp)

@<TRIPOS>ATOM
      1 CAQ        21.6840  -10.4457  -34.4544 C.ar        1 MOL      -0.0578
      2 CAK        22.7627   -9.8988  -35.1723 C.ar        1 MOL      -0.0685
      3 CAH        24.0282   -9.8037  -34.5682 C.ar        1 MOL      -0.0687
      4 CAL        24.2198  -10.2652  -33.2520 C.ar        1 MOL      -0.0685
      5 CAR        23.1371  -10.8074  -32.5322 C.ar        1 MOL      -0.0578
      6 CBP        21.8527  -10.8913  -33.1219 C.ar        1 MOL      -0.0130
      7 CBB        20.6720  -11.3790  -32.3522 C.3         1 MOL       0.1113
      8 OBJ        19.5871  -10.4423  -32.3797 O.3         1 MOL      -0.2506
      9 CBM        19.5855   -9.1786  -31.8771 C.2         1 MOL       0.3232
     10 OAB        20.6732   -8.7059  -31.2187 O.2         1 MOL      -0.3774
     11 NBI        18.4957   -8.4182  -32.1157 N.am        1 MOL      -0.2418
     12 CBX        18.3488   -7.0350  -31.7561 C.3         1 MOL       0.1176
     13 CBE        19.0044   -6.1154  -32.8403 C.3         1 MOL       0.0205
     14 CBQ        20.4835   -5.9783  -32.7170 C.ar        1 MOL      -0.0393
     15 CAS        21.3591   -6.3473  -33.7673 C.ar        1 MOL      -0.0602
     16 CAM        22.7442   -6.1278  -33.6590 C.ar        1 MOL      -0.0686
     17 CAI        23.2801   -5.5340  -32.4999 C.ar        1 MOL      -0.0687
     18 CAN        22.4219   -5.1658  -31.4474 C.ar        1 MOL      -0.0686
     19 CAT        21.0415   -5.3979  -31.5507 C.ar        1 MOL      -0.0602
     20 PBY        16.7279   -6.6778  -31.4689 P.3         1 MOL       0.0154
     21 OAG        15.9116   -7.8559  -31.3355 O.co2       1 MOL      -0.6174
     22 OAD        16.1505   -6.0225  -32.6186 O.co2       1 MOL      -0.6174
     23 N          14.6262   -6.4799  -27.0641 N.am        1 MOL      -0.2694
     24 CA         13.3307   -6.6528  -26.4897 C.3         1 MOL       0.1024
     25 C          12.4027   -5.5566  -26.8492 C.2         1 MOL       0.0619
     26 OXT        11.0877   -5.7115  -26.5898 O.co2       1 MOL      -0.5665
     27 O          12.8057   -4.4203  -27.4683 O.co2       1 MOL      -0.5665
     28 CB         13.4336   -6.8498  -24.9398 C.3         1 MOL       0.0108
     29 CG         14.2536   -5.8905  -24.1216 C.ar        1 MOL      -0.0499
     30 CD1        14.7708   -6.3084  -22.8700 C.ar        1 MOL      -0.0686
     31 CE1        15.5217   -5.4228  -22.0659 C.ar        1 MOL      -0.0398
     32 CZ         15.7682   -4.1052  -22.4978 C.ar        1 MOL       0.0805
     33 OH         16.4891   -3.2400  -21.7358 O.3         1 MOL      -0.3376
     34 CE2        15.2513   -3.6756  -23.7320 C.ar        1 MOL      -0.0398
     35 CD2        14.4890   -4.5541  -24.5282 C.ar        1 MOL      -0.0686
     36 CBF        16.5460   -5.6505  -30.1507 C.3         1 MOL       0.0375
     37 CBV        16.3714   -6.2701  -28.7119 C.3         1 MOL       0.0788
     38 CBN        14.9661   -6.5095  -28.3504 C.2         1 MOL       0.1848
     39 OAC        14.1169   -6.7484  -29.2077 O.2         1 MOL      -0.3964
     40 CBC        17.3109   -7.4857  -28.4004 C.3         1 MOL       0.0422
     41 CBS        16.9931   -8.2300  -27.1653 C.2         1 MOL       0.1411
     42 CBA        16.7002   -9.5775  -27.0764 C.2         1 MOL      -0.0269
     43 OBK        16.9140   -7.7199  -25.9125 O.3         1 MOL      -0.1670
     44 NBG        16.6055   -8.6839  -25.0839 N.2         1 MOL      -0.1519
     45 CBU        16.4705   -9.8575  -25.7372 C.2         1 MOL       0.0430
     46 CBT        16.1692  -11.1102  -25.1310 C.ar        1 MOL      -0.0150
     47 CAU        16.3178  -12.3323  -25.8359 C.ar        1 MOL      -0.0551
     48 CAO        16.0559  -13.5689  -25.2140 C.ar        1 MOL      -0.0621
     49 CAJ        15.6314  -13.6065  -23.8750 C.ar        1 MOL      -0.0626
     50 CAP        15.4786  -12.4069  -23.1592 C.ar        1 MOL      -0.0621
     51 CAV        15.7415  -11.1722  -23.7845 C.ar        1 MOL      -0.0551
     52 H1         20.7635  -10.4949  -34.9022 H           1 MOL       0.0557
     53 H2         22.6218   -9.5533  -36.1245 H           1 MOL       0.0599
     54 H3         24.8111   -9.3969  -35.0847 H           1 MOL       0.0559
     55 H4         25.1385  -10.1919  -32.8138 H           1 MOL       0.0599
     56 H5         23.2888  -11.1242  -31.5699 H           1 MOL       0.0557
     57 H6         20.9241  -11.5851  -31.3037 H           1 MOL       0.0776
     58 H7         20.3342  -12.3143  -32.8081 H           1 MOL       0.0776
     59 H8         17.7798   -8.8221  -32.6393 H           1 MOL       0.1888
     60 H9         18.8619   -6.8774  -30.8073 H           1 MOL       0.0787
     61 H10        18.5942   -5.1065  -32.7790 H           1 MOL       0.0465
     62 H11        18.7336   -6.4876  -33.8298 H           1 MOL       0.0465
     63 H12        20.9936   -6.7669  -34.6245 H           1 MOL       0.0557
     64 H13        23.3666   -6.3718  -34.4335 H           1 MOL       0.0599
     65 H14        24.2822   -5.3398  -32.4351 H           1 MOL       0.0559
     66 H15        22.8026   -4.7175  -30.6097 H           1 MOL       0.0599
     67 H16        20.4381   -5.1077  -30.7775 H           1 MOL       0.0557
     68 H17        15.3524   -6.3311  -26.4398 H           1 MOL       0.1876
     69 H18        12.9015   -7.5797  -26.8955 H           1 MOL       0.0747
     70 H19        13.8466   -7.8544  -24.7901 H           1 MOL       0.0446
     71 H20        12.4310   -6.8778  -24.4969 H           1 MOL       0.0446
     72 H21        14.5895   -7.2583  -22.5257 H           1 MOL       0.0530
     73 H22        15.8698   -5.7442  -21.1623 H           1 MOL       0.0525
     74 H23        17.1078   -3.7878  -21.2051 H           1 MOL       0.2458
     75 H24        15.4160   -2.7237  -24.0608 H           1 MOL       0.0525
     76 H25        14.1169   -4.2033  -25.4077 H           1 MOL       0.0530
     77 H26        15.6937   -4.9898  -30.3430 H           1 MOL       0.0495
     78 H27        17.4234   -4.9956  -30.1351 H           1 MOL       0.0495
     79 H28        16.7197   -5.4747  -28.0376 H           1 MOL       0.0581
     80 H29        18.3381   -7.1231  -28.3027 H           1 MOL       0.0513
     81 H30        17.2923   -8.1951  -29.2281 H           1 MOL       0.0513
     82 H31        16.6686  -10.2311  -27.8656 H           1 MOL       0.0289
     83 H32        16.6416  -12.3434  -26.8063 H           1 MOL       0.0616
     84 H33        16.1837  -14.4423  -25.7300 H           1 MOL       0.0615
     85 H34        15.4492  -14.5018  -23.4190 H           1 MOL       0.0610
     86 H35        15.1861  -12.4245  -22.1805 H           1 MOL       0.0615
     87 H36        15.6173  -10.3178  -23.2322 H           1 MOL       0.0616
@<TRIPOS>BOND
     1     1     2  ar
     2     6     1  ar
     3     2     3  ar
     4     4     3  ar
     5     5     4  ar
     6     6     5  ar
     7     7     6   1
     8     8     7   1
     9     9     8   1
    10     9    10   2
    11    11     9  am
    12    12    11   1
    13    12    13   1
    14    20    12   1
    15    13    14   1
    16    14    15  ar
    17    14    19  ar
    18    15    16  ar
    19    16    17  ar
    20    18    17  ar
    21    19    18  ar
    22    20    21  ar
    23    20    22  ar
    24    36    20   1
    25    23    24   1
    26    38    23  am
    27    24    25   1
    28    24    28   1
    29    25    26  ar
    30    25    27  ar
    31    28    29   1
    32    29    30  ar
    33    29    35  ar
    34    30    31  ar
    35    31    32  ar
    36    32    33   1
    37    34    32  ar
    38    35    34  ar
    39    37    36   1
    40    37    38   1
    41    37    40   1
    42    38    39   2
    43    40    41   1
    44    41    42   2
    45    41    43   1
    46    42    45   1
    47    43    44   1
    48    44    45   2
    49    45    46   1
    50    46    47  ar
    51    46    51  ar
    52    47    48  ar
    53    48    49  ar
    54    49    50  ar
    55    50    51  ar
    56     1    52   1
    57     2    53   1
    58     3    54   1
    59     4    55   1
    60     5    56   1
    61     7    57   1
    62     7    58   1
    63    11    59   1
    64    12    60   1
    65    13    61   1
    66    13    62   1
    67    15    63   1
    68    16    64   1
    69    17    65   1
    70    18    66   1
    71    19    67   1
    72    23    68   1
    73    24    69   1
    74    28    70   1
    75    28    71   1
    76    30    72   1
    77    31    73   1
    78    33    74   1
    79    34    75   1
    80    35    76   1
    81    36    77   1
    82    36    78   1
    83    37    79   1
    84    40    80   1
    85    40    81   1
    86    42    82   1
    87    47    83   1
    88    48    84   1
    89    49    85   1
    90    50    86   1
    91    51    87   1
@<TRIPOS>SUBSTRUCTURE
     1  MOL      1

