@<TRIPOS>MOLECULE
2xy9_ligand_008
    87    91
SMALL
GAST_HUCK
****
This file was generated by PARSER (from files_GN.cpp)

@<TRIPOS>ATOM
      1 CAQ        10.9456   -4.2766  -12.2592 C.ar        1 MOL      -0.0578
      2 CAK         9.7697   -3.7281  -11.7166 C.ar        1 MOL      -0.0685
      3 CAH         8.5930   -4.4937  -11.6566 C.ar        1 MOL      -0.0687
      4 CAL         8.5881   -5.8063  -12.1623 C.ar        1 MOL      -0.0685
      5 CAR         9.7600   -6.3485  -12.7238 C.ar        1 MOL      -0.0578
      6 CBP        10.9566   -5.5928  -12.7778 C.ar        1 MOL      -0.0130
      7 CBB        12.1859   -6.1479  -13.4161 C.3         1 MOL       0.1113
      8 OBJ        12.6483   -5.3406  -14.5097 O.3         1 MOL      -0.2506
      9 CBM        11.9054   -4.9313  -15.5697 C.2         1 MOL       0.3232
     10 OAB        10.6108   -5.3152  -15.6687 O.2         1 MOL      -0.3774
     11 NBI        12.4505   -4.0474  -16.4350 N.am        1 MOL      -0.2418
     12 CBX        11.7028   -3.1903  -17.3113 C.3         1 MOL       0.1176
     13 CBE        12.0621   -1.6972  -16.9904 C.3         1 MOL       0.0205
     14 CBQ        10.8905   -0.7810  -16.9155 C.ar        1 MOL      -0.0393
     15 CAS        10.8002    0.3713  -17.7303 C.ar        1 MOL      -0.0602
     16 CAM         9.6716    1.2107  -17.6686 C.ar        1 MOL      -0.0686
     17 CAI         8.6319    0.9310  -16.7650 C.ar        1 MOL      -0.0687
     18 CAN         8.7212   -0.1899  -15.9229 C.ar        1 MOL      -0.0686
     19 CAT         9.8496   -1.0317  -15.9874 C.ar        1 MOL      -0.0602
     20 PBY        11.8188   -3.6806  -18.9067 P.3         1 MOL       0.0154
     21 OAG        10.5458   -3.3517  -19.5184 O.co2       1 MOL      -0.6174
     22 OAD        11.7757   -5.1241  -18.9641 O.co2       1 MOL      -0.6174
     23 N          14.2862   -4.8576  -22.3137 N.am        1 MOL      -0.2694
     24 CA         14.3915   -4.9671  -23.7383 C.3         1 MOL       0.1024
     25 C          15.7524   -5.3158  -24.1584 C.2         1 MOL       0.0619
     26 OXT        16.0290   -6.4926  -24.7741 O.co2       1 MOL      -0.5665
     27 O          16.7279   -4.3903  -23.9868 O.co2       1 MOL      -0.5665
     28 CB         13.8689   -3.6796  -24.4458 C.3         1 MOL       0.0108
     29 CG         13.8777   -3.7819  -25.9314 C.ar        1 MOL      -0.0499
     30 CD1        12.7840   -4.3786  -26.6018 C.ar        1 MOL      -0.0686
     31 CE1        12.8082   -4.5413  -27.9985 C.ar        1 MOL      -0.0398
     32 CZ         13.9353   -4.1307  -28.7378 C.ar        1 MOL       0.0805
     33 OH         13.9504   -4.3417  -30.0842 O.3         1 MOL      -0.3376
     34 CE2        15.0273   -3.5257  -28.0750 C.ar        1 MOL      -0.0398
     35 CD2        14.9941   -3.3509  -26.6813 C.ar        1 MOL      -0.0686
     36 CBF        12.9726   -3.1747  -20.0056 C.3         1 MOL       0.0375
     37 CBV        14.3395   -3.9526  -20.1000 C.3         1 MOL       0.0788
     38 CBN        14.8440   -3.9760  -21.4763 C.2         1 MOL       0.1848
     39 OAC        15.6752   -3.1544  -21.8896 O.2         1 MOL      -0.3964
     40 CBC        15.4146   -3.5798  -19.0347 C.3         1 MOL       0.0422
     41 CBS        15.8718   -2.1912  -18.8121 C.2         1 MOL       0.1411
     42 CBA        15.4765   -0.9615  -19.3249 C.2         1 MOL      -0.0269
     43 OBK        16.8220   -1.9342  -17.8810 O.3         1 MOL      -0.1670
     44 NBG        17.0077   -0.6458  -17.7752 N.2         1 MOL      -0.1519
     45 CBU        16.1913    0.0126  -18.6217 C.2         1 MOL       0.0430
     46 CBT        16.0484    1.4243  -18.6245 C.ar        1 MOL      -0.0150
     47 CAU        14.8471    2.0303  -19.0705 C.ar        1 MOL      -0.0551
     48 CAO        14.6467    3.4138  -18.9371 C.ar        1 MOL      -0.0621
     49 CAJ        15.6395    4.2203  -18.3519 C.ar        1 MOL      -0.0626
     50 CAP        16.8433    3.6361  -17.9140 C.ar        1 MOL      -0.0621
     51 CAV        17.0503    2.2543  -18.0571 C.ar        1 MOL      -0.0551
     52 H1         11.7944   -3.7028  -12.2901 H           1 MOL       0.0557
     53 H2          9.7623   -2.7643  -11.3742 H           1 MOL       0.0599
     54 H3          7.7425   -4.0997  -11.2514 H           1 MOL       0.0559
     55 H4          7.7323   -6.3621  -12.1297 H           1 MOL       0.0599
     56 H5          9.7334   -7.3026  -13.0913 H           1 MOL       0.0557
     57 H6         12.0302   -7.1629  -13.7841 H           1 MOL       0.0776
     58 H7         12.9823   -6.1844  -12.6717 H           1 MOL       0.0776
     59 H8         13.3840   -3.8204  -16.2961 H           1 MOL       0.1888
     60 H9         10.6366   -3.3190  -17.0683 H           1 MOL       0.0787
     61 H10        12.7941   -1.3281  -17.7175 H           1 MOL       0.0465
     62 H11        12.5669   -1.6238  -16.0242 H           1 MOL       0.0465
     63 H12        11.5422    0.5921  -18.3976 H           1 MOL       0.0557
     64 H13         9.6106    2.0264  -18.2833 H           1 MOL       0.0599
     65 H14         7.8140    1.5396  -16.7219 H           1 MOL       0.0559
     66 H15         7.9671   -0.3928  -15.2614 H           1 MOL       0.0599
     67 H16         9.8891   -1.8464  -15.3681 H           1 MOL       0.0557
     68 H17        13.6802   -5.4996  -21.9017 H           1 MOL       0.1876
     69 H18        13.7204   -5.7804  -24.0204 H           1 MOL       0.0747
     70 H19        14.4633   -2.8074  -24.1295 H           1 MOL       0.0446
     71 H20        12.8395   -3.4914  -24.1134 H           1 MOL       0.0446
     72 H21        11.9661   -4.7023  -26.0843 H           1 MOL       0.0530
     73 H22        12.0193   -4.9832  -28.4732 H           1 MOL       0.0525
     74 H23        14.7053   -3.8154  -30.4284 H           1 MOL       0.2458
     75 H24        15.8513   -3.2337  -28.6067 H           1 MOL       0.0525
     76 H25        15.7949   -2.9206  -26.2188 H           1 MOL       0.0530
     77 H26        13.1337   -2.1107  -19.8456 H           1 MOL       0.0495
     78 H27        12.4725   -3.2519  -20.9776 H           1 MOL       0.0495
     79 H28        14.1148   -4.9914  -19.8686 H           1 MOL       0.0581
     80 H29        16.3076   -4.1670  -19.2402 H           1 MOL       0.0513
     81 H30        15.0425   -3.9142  -18.0653 H           1 MOL       0.0513
     82 H31        14.7772   -0.7983  -20.0461 H           1 MOL       0.0289
     83 H32        14.0890    1.4672  -19.4528 H           1 MOL       0.0616
     84 H33        13.7639    3.8353  -19.2400 H           1 MOL       0.0615
     85 H34        15.4813    5.2243  -18.2278 H           1 MOL       0.0610
     86 H35        17.5565    4.2187  -17.4676 H           1 MOL       0.0615
     87 H36        17.9281    1.8573  -17.7180 H           1 MOL       0.0616
@<TRIPOS>BOND
     1     1     2  ar
     2     6     1  ar
     3     2     3  ar
     4     4     3  ar
     5     5     4  ar
     6     6     5  ar
     7     7     6   1
     8     8     7   1
     9     9     8   1
    10     9    10   2
    11    11     9  am
    12    12    11   1
    13    12    13   1
    14    20    12   1
    15    13    14   1
    16    14    15  ar
    17    14    19  ar
    18    15    16  ar
    19    16    17  ar
    20    18    17  ar
    21    19    18  ar
    22    20    21  ar
    23    20    22  ar
    24    36    20   1
    25    23    24   1
    26    38    23  am
    27    24    25   1
    28    24    28   1
    29    25    26  ar
    30    25    27  ar
    31    28    29   1
    32    29    30  ar
    33    29    35  ar
    34    30    31  ar
    35    31    32  ar
    36    32    33   1
    37    34    32  ar
    38    35    34  ar
    39    37    36   1
    40    37    38   1
    41    37    40   1
    42    38    39   2
    43    40    41   1
    44    41    42   2
    45    41    43   1
    46    42    45   1
    47    43    44   1
    48    44    45   2
    49    45    46   1
    50    46    47  ar
    51    46    51  ar
    52    47    48  ar
    53    48    49  ar
    54    49    50  ar
    55    50    51  ar
    56     1    52   1
    57     2    53   1
    58     3    54   1
    59     4    55   1
    60     5    56   1
    61     7    57   1
    62     7    58   1
    63    11    59   1
    64    12    60   1
    65    13    61   1
    66    13    62   1
    67    15    63   1
    68    16    64   1
    69    17    65   1
    70    18    66   1
    71    19    67   1
    72    23    68   1
    73    24    69   1
    74    28    70   1
    75    28    71   1
    76    30    72   1
    77    31    73   1
    78    33    74   1
    79    34    75   1
    80    35    76   1
    81    36    77   1
    82    36    78   1
    83    37    79   1
    84    40    80   1
    85    40    81   1
    86    42    82   1
    87    47    83   1
    88    48    84   1
    89    49    85   1
    90    50    86   1
    91    51    87   1
@<TRIPOS>SUBSTRUCTURE
     1  MOL      1

