@<TRIPOS>MOLECULE
2xy9_ligand_023
    87    91
SMALL
GAST_HUCK
****
This file was generated by PARSER (from files_GN.cpp)

@<TRIPOS>ATOM
      1 CAQ        14.8712   -3.7256  -26.8756 C.ar        1 MOL      -0.0578
      2 CAK        14.2375   -2.7503  -27.6666 C.ar        1 MOL      -0.0685
      3 CAH        15.0060   -1.7644  -28.3076 C.ar        1 MOL      -0.0687
      4 CAL        16.4063   -1.7712  -28.1755 C.ar        1 MOL      -0.0685
      5 CAR        17.0407   -2.7561  -27.3939 C.ar        1 MOL      -0.0578
      6 CBP        16.2781   -3.7374  -26.7165 C.ar        1 MOL      -0.0130
      7 CBB        16.9408   -4.7193  -25.8143 C.3         1 MOL       0.1113
      8 OBJ        17.7311   -5.7159  -26.4851 O.3         1 MOL      -0.2506
      9 CBM        17.2477   -6.7826  -27.1737 C.2         1 MOL       0.3232
     10 OAB        15.9146   -6.9379  -27.3133 O.2         1 MOL      -0.3774
     11 NBI        18.1196   -7.6958  -27.6561 N.am        1 MOL      -0.2418
     12 CBX        17.8669   -8.8327  -28.5226 C.3         1 MOL       0.1176
     13 CBE        19.2594   -9.5391  -28.7961 C.3         1 MOL       0.0205
     14 CBQ        19.5600  -10.0862  -30.1661 C.ar        1 MOL      -0.0393
     15 CAS        18.5306  -10.4605  -31.0666 C.ar        1 MOL      -0.0602
     16 CAM        18.8345  -11.0147  -32.3260 C.ar        1 MOL      -0.0686
     17 CAI        20.1723  -11.2594  -32.6943 C.ar        1 MOL      -0.0687
     18 CAN        21.2080  -10.9389  -31.7924 C.ar        1 MOL      -0.0686
     19 CAT        20.9078  -10.3568  -30.5463 C.ar        1 MOL      -0.0602
     20 PBY        16.5737   -9.8110  -28.0117 P.3         1 MOL       0.0154
     21 OAG        16.0992   -9.4363  -26.7060 O.co2       1 MOL      -0.6174
     22 OAD        17.1008  -11.1112  -27.6803 O.co2       1 MOL      -0.6174
     23 N          13.3100   -8.4758  -27.0970 N.am        1 MOL      -0.2694
     24 CA         12.4464   -8.3103  -25.9549 C.3         1 MOL       0.1024
     25 C          12.2699   -6.8536  -25.7499 C.2         1 MOL       0.0619
     26 OXT        11.3039   -6.1781  -26.4164 O.co2       1 MOL      -0.5665
     27 O          13.1804   -6.1327  -25.0570 O.co2       1 MOL      -0.5665
     28 CB         13.0450   -9.0324  -24.6995 C.3         1 MOL       0.0108
     29 CG         12.6040  -10.4462  -24.5306 C.ar        1 MOL      -0.0499
     30 CD1        13.5000  -11.5322  -24.6760 C.ar        1 MOL      -0.0686
     31 CE1        13.0714  -12.8546  -24.4484 C.ar        1 MOL      -0.0398
     32 CZ         11.7393  -13.1150  -24.0705 C.ar        1 MOL       0.0805
     33 OH         11.3039  -14.3803  -23.8378 O.3         1 MOL      -0.3376
     34 CE2        10.8421  -12.0428  -23.9143 C.ar        1 MOL      -0.0398
     35 CD2        11.2691  -10.7226  -24.1476 C.ar        1 MOL      -0.0686
     36 CBF        15.3004  -10.1216  -29.0706 C.3         1 MOL       0.0375
     37 CBV        14.0612   -9.1748  -29.3120 C.3         1 MOL       0.0788
     38 CBN        13.0981   -9.1982  -28.1934 C.2         1 MOL       0.1848
     39 OAC        12.0865   -9.8883  -28.2957 O.2         1 MOL      -0.3964
     40 CBC        14.2674   -7.7242  -29.9029 C.3         1 MOL       0.0422
     41 CBS        15.5144   -7.4525  -30.6518 C.2         1 MOL       0.1411
     42 CBA        16.4067   -6.4057  -30.4524 C.2         1 MOL      -0.0269
     43 OBK        16.0265   -8.2184  -31.6383 O.3         1 MOL      -0.1670
     44 NBG        17.1951   -7.7509  -31.9950 N.2         1 MOL      -0.1519
     45 CBU        17.5019   -6.6506  -31.2789 C.2         1 MOL       0.0430
     46 CBT        18.7804   -6.0291  -31.2664 C.ar        1 MOL      -0.0150
     47 CAU        19.1811   -5.1807  -30.2020 C.ar        1 MOL      -0.0551
     48 CAO        20.5022   -4.7059  -30.1068 C.ar        1 MOL      -0.0621
     49 CAJ        21.4491   -5.0596  -31.0834 C.ar        1 MOL      -0.0626
     50 CAP        21.0654   -5.8689  -32.1673 C.ar        1 MOL      -0.0621
     51 CAV        19.7446   -6.3482  -32.2561 C.ar        1 MOL      -0.0551
     52 H1         14.2947   -4.4243  -26.4053 H           1 MOL       0.0557
     53 H2         13.2192   -2.7466  -27.7593 H           1 MOL       0.0599
     54 H3         14.5442   -1.0406  -28.8605 H           1 MOL       0.0559
     55 H4         16.9623   -1.0497  -28.6362 H           1 MOL       0.0599
     56 H5         18.0607   -2.7400  -27.3041 H           1 MOL       0.0557
     57 H6         16.2069   -5.2405  -25.1921 H           1 MOL       0.0776
     58 H7         17.5942   -4.1716  -25.1363 H           1 MOL       0.0776
     59 H8         19.0511   -7.5169  -27.4546 H           1 MOL       0.1888
     60 H9         17.5694   -8.4233  -29.4758 H           1 MOL       0.0787
     61 H10        19.4135  -10.3444  -28.0782 H           1 MOL       0.0465
     62 H11        20.0556   -8.8176  -28.5767 H           1 MOL       0.0465
     63 H12        17.5588  -10.3663  -30.7999 H           1 MOL       0.0557
     64 H13        18.0767  -11.2685  -32.9679 H           1 MOL       0.0599
     65 H14        20.3906  -11.6866  -33.6016 H           1 MOL       0.0559
     66 H15        22.1823  -11.1410  -32.0430 H           1 MOL       0.0599
     67 H16        21.6808  -10.1618  -29.8972 H           1 MOL       0.0557
     68 H17        14.1465   -7.9831  -27.0674 H           1 MOL       0.1876
     69 H18        11.4470   -8.7102  -26.1507 H           1 MOL       0.0747
     70 H19        12.7496   -8.5083  -23.7880 H           1 MOL       0.0446
     71 H20        14.1363   -8.9694  -24.7341 H           1 MOL       0.0446
     72 H21        14.4757  -11.3664  -24.9335 H           1 MOL       0.0530
     73 H22        13.7328  -13.6285  -24.5517 H           1 MOL       0.0525
     74 H23        11.7139  -14.9500  -24.5226 H           1 MOL       0.2458
     75 H24         9.8755  -12.2192  -23.6299 H           1 MOL       0.0525
     76 H25        10.6026   -9.9584  -24.0119 H           1 MOL       0.0530
     77 H26        14.8789  -11.0889  -28.7608 H           1 MOL       0.0495
     78 H27        15.7565  -10.2831  -30.0457 H           1 MOL       0.0495
     79 H28        13.5529   -9.6942  -30.1363 H           1 MOL       0.0581
     80 H29        14.1636   -6.9703  -29.1207 H           1 MOL       0.0513
     81 H30        13.4577   -7.5217  -30.6120 H           1 MOL       0.0513
     82 H31        16.3124   -5.6677  -29.7581 H           1 MOL       0.0289
     83 H32        18.5324   -4.9284  -29.4550 H           1 MOL       0.0616
     84 H33        20.7797   -4.1110  -29.3207 H           1 MOL       0.0615
     85 H34        22.4140   -4.7251  -31.0093 H           1 MOL       0.0610
     86 H35        21.7520   -6.1207  -32.8831 H           1 MOL       0.0615
     87 H36        19.5022   -6.9535  -33.0449 H           1 MOL       0.0616
@<TRIPOS>BOND
     1     1     2  ar
     2     6     1  ar
     3     2     3  ar
     4     4     3  ar
     5     5     4  ar
     6     6     5  ar
     7     7     6   1
     8     8     7   1
     9     9     8   1
    10     9    10   2
    11    11     9  am
    12    12    11   1
    13    12    13   1
    14    20    12   1
    15    13    14   1
    16    14    15  ar
    17    14    19  ar
    18    15    16  ar
    19    16    17  ar
    20    18    17  ar
    21    19    18  ar
    22    20    21  ar
    23    20    22  ar
    24    36    20   1
    25    23    24   1
    26    38    23  am
    27    24    25   1
    28    24    28   1
    29    25    26  ar
    30    25    27  ar
    31    28    29   1
    32    29    30  ar
    33    29    35  ar
    34    30    31  ar
    35    31    32  ar
    36    32    33   1
    37    34    32  ar
    38    35    34  ar
    39    37    36   1
    40    37    38   1
    41    37    40   1
    42    38    39   2
    43    40    41   1
    44    41    42   2
    45    41    43   1
    46    42    45   1
    47    43    44   1
    48    44    45   2
    49    45    46   1
    50    46    47  ar
    51    46    51  ar
    52    47    48  ar
    53    48    49  ar
    54    49    50  ar
    55    50    51  ar
    56     1    52   1
    57     2    53   1
    58     3    54   1
    59     4    55   1
    60     5    56   1
    61     7    57   1
    62     7    58   1
    63    11    59   1
    64    12    60   1
    65    13    61   1
    66    13    62   1
    67    15    63   1
    68    16    64   1
    69    17    65   1
    70    18    66   1
    71    19    67   1
    72    23    68   1
    73    24    69   1
    74    28    70   1
    75    28    71   1
    76    30    72   1
    77    31    73   1
    78    33    74   1
    79    34    75   1
    80    35    76   1
    81    36    77   1
    82    36    78   1
    83    37    79   1
    84    40    80   1
    85    40    81   1
    86    42    82   1
    87    47    83   1
    88    48    84   1
    89    49    85   1
    90    50    86   1
    91    51    87   1
@<TRIPOS>SUBSTRUCTURE
     1  MOL      1

