@<TRIPOS>MOLECULE
2xy9_ligand_074
    87    91
SMALL
GAST_HUCK
****
This file was generated by PARSER (from files_GN.cpp)

@<TRIPOS>ATOM
      1 CAQ        12.5191   -3.4414  -27.1387 C.ar        1 MOL      -0.0578
      2 CAK        13.2750   -2.8448  -28.1611 C.ar        1 MOL      -0.0685
      3 CAH        13.9799   -3.6541  -29.0729 C.ar        1 MOL      -0.0687
      4 CAL        13.9555   -5.0473  -28.9358 C.ar        1 MOL      -0.0685
      5 CAR        13.2311   -5.6427  -27.8850 C.ar        1 MOL      -0.0578
      6 CBP        12.5030   -4.8457  -26.9709 C.ar        1 MOL      -0.0130
      7 CBB        11.7645   -5.4178  -25.8102 C.3         1 MOL       0.1113
      8 OBJ        12.1439   -6.7177  -25.3176 O.3         1 MOL      -0.2506
      9 CBM        13.3106   -7.0113  -24.6779 C.2         1 MOL       0.3232
     10 OAB        14.2831   -6.0764  -24.6740 O.2         1 MOL      -0.3774
     11 NBI        13.4411   -8.1982  -24.0470 N.am        1 MOL      -0.2418
     12 CBX        14.4691   -8.7585  -23.1980 C.3         1 MOL       0.1176
     13 CBE        14.7424  -10.1986  -23.7646 C.3         1 MOL       0.0205
     14 CBQ        15.7664  -11.0131  -23.0393 C.ar        1 MOL      -0.0393
     15 CAS        17.0555  -11.2176  -23.5846 C.ar        1 MOL      -0.0602
     16 CAM        18.0605  -11.8772  -22.8418 C.ar        1 MOL      -0.0686
     17 CAI        17.7747  -12.3731  -21.5619 C.ar        1 MOL      -0.0687
     18 CAN        16.4938  -12.1974  -21.0103 C.ar        1 MOL      -0.0686
     19 CAT        15.4938  -11.5374  -21.7531 C.ar        1 MOL      -0.0602
     20 PBY        15.8624   -7.8527  -22.8625 P.3         1 MOL       0.0154
     21 OAG        16.6326   -7.5390  -24.0449 O.co2       1 MOL      -0.6174
     22 OAD        16.8824   -8.7508  -22.3391 O.co2       1 MOL      -0.6174
     23 N          16.3213   -4.9780  -24.1280 N.am        1 MOL      -0.2694
     24 CA         16.9900   -4.4329  -25.2834 C.3         1 MOL       0.1024
     25 C          16.0175   -4.1550  -26.3511 C.2         1 MOL       0.0619
     26 OXT        15.0791   -3.2068  -26.1075 O.co2       1 MOL      -0.5665
     27 O          16.3131   -4.4062  -27.6518 O.co2       1 MOL      -0.5665
     28 CB         18.2312   -5.2975  -25.6833 C.3         1 MOL       0.0108
     29 CG         18.1750   -6.4939  -26.5867 C.ar        1 MOL      -0.0499
     30 CD1        19.4008   -6.9835  -27.1041 C.ar        1 MOL      -0.0686
     31 CE1        19.4421   -8.1010  -27.9566 C.ar        1 MOL      -0.0398
     32 CZ         18.2518   -8.7702  -28.3022 C.ar        1 MOL       0.0805
     33 OH         18.3165   -9.8707  -29.0988 O.3         1 MOL      -0.3376
     34 CE2        17.0223   -8.2893  -27.8103 C.ar        1 MOL      -0.0398
     35 CD2        16.9856   -7.1621  -26.9658 C.ar        1 MOL      -0.0686
     36 CBF        15.8698   -6.6841  -21.6602 C.3         1 MOL       0.0375
     37 CBV        15.4980   -5.1662  -21.8314 C.3         1 MOL       0.0788
     38 CBN        16.1580   -4.4378  -22.9241 C.2         1 MOL       0.1848
     39 OAC        16.5204   -3.2850  -22.7061 O.2         1 MOL      -0.3964
     40 CBC        13.9777   -4.8290  -21.7067 C.3         1 MOL       0.0422
     41 CBS        13.7148   -3.5736  -20.9771 C.2         1 MOL       0.1411
     42 CBA        12.8525   -3.3542  -19.9158 C.2         1 MOL      -0.0269
     43 OBK        14.3389   -2.4009  -21.2371 O.3         1 MOL      -0.1670
     44 NBG        13.9166   -1.4986  -20.4001 N.2         1 MOL      -0.1519
     45 CBU        13.0025   -2.0163  -19.5515 C.2         1 MOL       0.0430
     46 CBT        12.3625   -1.2897  -18.5137 C.ar        1 MOL      -0.0150
     47 CAU        11.2868   -1.8361  -17.7714 C.ar        1 MOL      -0.0551
     48 CAO        10.6614   -1.0997  -16.7482 C.ar        1 MOL      -0.0621
     49 CAJ        11.1007    0.2038  -16.4491 C.ar        1 MOL      -0.0626
     50 CAP        12.1730    0.7576  -17.1636 C.ar        1 MOL      -0.0621
     51 CAV        12.7957    0.0215  -18.1896 C.ar        1 MOL      -0.0551
     52 H1         12.0166   -2.8333  -26.4816 H           1 MOL       0.0557
     53 H2         13.3335   -1.8251  -28.2254 H           1 MOL       0.0599
     54 H3         14.5315   -3.2151  -29.8169 H           1 MOL       0.0559
     55 H4         14.4885   -5.6332  -29.5844 H           1 MOL       0.0599
     56 H5         13.2543   -6.6581  -27.7846 H           1 MOL       0.0557
     57 H6         10.7093   -5.4550  -26.0678 H           1 MOL       0.0776
     58 H7         11.8696   -4.7305  -24.9640 H           1 MOL       0.0776
     59 H8         12.6798   -8.7848  -24.1776 H           1 MOL       0.1888
     60 H9         13.9648   -8.8769  -22.2316 H           1 MOL       0.0787
     61 H10        15.0158  -10.1067  -24.8212 H           1 MOL       0.0465
     62 H11        13.8167  -10.7925  -23.7333 H           1 MOL       0.0465
     63 H12        17.3004  -10.8403  -24.5033 H           1 MOL       0.0557
     64 H13        18.9988  -11.9813  -23.2309 H           1 MOL       0.0599
     65 H14        18.5029  -12.8572  -21.0272 H           1 MOL       0.0559
     66 H15        16.2852  -12.5565  -20.0732 H           1 MOL       0.0599
     67 H16        14.5696  -11.4207  -21.3338 H           1 MOL       0.0557
     68 H17        15.9488   -5.8712  -24.2441 H           1 MOL       0.1876
     69 H18        17.3765   -3.4393  -25.0530 H           1 MOL       0.0747
     70 H19        18.6765   -5.6465  -24.7516 H           1 MOL       0.0446
     71 H20        18.9522   -4.6131  -26.1416 H           1 MOL       0.0446
     72 H21        20.2838   -6.5293  -26.8612 H           1 MOL       0.0530
     73 H22        20.3417   -8.4393  -28.3130 H           1 MOL       0.0525
     74 H23        17.6286  -10.4870  -28.7701 H           1 MOL       0.2458
     75 H24        16.1527   -8.7634  -28.0591 H           1 MOL       0.0525
     76 H25        16.0801   -6.8504  -26.6232 H           1 MOL       0.0530
     77 H26        16.8796   -6.6732  -21.2362 H           1 MOL       0.0495
     78 H27        15.2085   -7.0701  -20.8745 H           1 MOL       0.0495
     79 H28        15.9354   -4.7519  -20.9167 H           1 MOL       0.0581
     80 H29        13.4633   -5.6450  -21.1920 H           1 MOL       0.0513
     81 H30        13.5136   -4.7100  -22.6817 H           1 MOL       0.0513
     82 H31        12.2438   -4.0547  -19.4832 H           1 MOL       0.0289
     83 H32        10.9371   -2.7760  -17.9663 H           1 MOL       0.0616
     84 H33         9.8830   -1.5039  -16.2302 H           1 MOL       0.0615
     85 H34        10.6390    0.7439  -15.7182 H           1 MOL       0.0610
     86 H35        12.5036    1.7024  -16.9402 H           1 MOL       0.0615
     87 H36        13.5790    0.4557  -18.6861 H           1 MOL       0.0616
@<TRIPOS>BOND
     1     1     2  ar
     2     6     1  ar
     3     2     3  ar
     4     4     3  ar
     5     5     4  ar
     6     6     5  ar
     7     7     6   1
     8     8     7   1
     9     9     8   1
    10     9    10   2
    11    11     9  am
    12    12    11   1
    13    12    13   1
    14    20    12   1
    15    13    14   1
    16    14    15  ar
    17    14    19  ar
    18    15    16  ar
    19    16    17  ar
    20    18    17  ar
    21    19    18  ar
    22    20    21  ar
    23    20    22  ar
    24    36    20   1
    25    23    24   1
    26    38    23  am
    27    24    25   1
    28    24    28   1
    29    25    26  ar
    30    25    27  ar
    31    28    29   1
    32    29    30  ar
    33    29    35  ar
    34    30    31  ar
    35    31    32  ar
    36    32    33   1
    37    34    32  ar
    38    35    34  ar
    39    37    36   1
    40    37    38   1
    41    37    40   1
    42    38    39   2
    43    40    41   1
    44    41    42   2
    45    41    43   1
    46    42    45   1
    47    43    44   1
    48    44    45   2
    49    45    46   1
    50    46    47  ar
    51    46    51  ar
    52    47    48  ar
    53    48    49  ar
    54    49    50  ar
    55    50    51  ar
    56     1    52   1
    57     2    53   1
    58     3    54   1
    59     4    55   1
    60     5    56   1
    61     7    57   1
    62     7    58   1
    63    11    59   1
    64    12    60   1
    65    13    61   1
    66    13    62   1
    67    15    63   1
    68    16    64   1
    69    17    65   1
    70    18    66   1
    71    19    67   1
    72    23    68   1
    73    24    69   1
    74    28    70   1
    75    28    71   1
    76    30    72   1
    77    31    73   1
    78    33    74   1
    79    34    75   1
    80    35    76   1
    81    36    77   1
    82    36    78   1
    83    37    79   1
    84    40    80   1
    85    40    81   1
    86    42    82   1
    87    47    83   1
    88    48    84   1
    89    49    85   1
    90    50    86   1
    91    51    87   1
@<TRIPOS>SUBSTRUCTURE
     1  MOL      1

