@<TRIPOS>MOLECULE
2xy9_ligand_066
    87    91
SMALL
GAST_HUCK
****
This file was generated by PARSER (from files_GN.cpp)

@<TRIPOS>ATOM
      1 CAQ        18.0269   -4.2553  -26.6191 C.ar        1 MOL      -0.0578
      2 CAK        18.2413   -3.6867  -27.8864 C.ar        1 MOL      -0.0685
      3 CAH        19.0865   -4.3254  -28.8118 C.ar        1 MOL      -0.0687
      4 CAL        19.7378   -5.5203  -28.4539 C.ar        1 MOL      -0.0685
      5 CAR        19.5412   -6.0733  -27.1768 C.ar        1 MOL      -0.0578
      6 CBP        18.6516   -5.4710  -26.2545 C.ar        1 MOL      -0.0130
      7 CBB        18.3574   -6.0752  -24.9249 C.3         1 MOL       0.1113
      8 OBJ        16.9806   -6.1042  -24.4926 O.3         1 MOL      -0.2506
      9 CBM        15.7796   -5.8595  -25.0921 C.2         1 MOL       0.3232
     10 OAB        15.6913   -5.5550  -26.4115 O.2         1 MOL      -0.3774
     11 NBI        14.6792   -5.9600  -24.3102 N.am        1 MOL      -0.2418
     12 CBX        13.2962   -5.6923  -24.6318 C.3         1 MOL       0.1176
     13 CBE        12.9763   -4.1666  -24.7913 C.3         1 MOL       0.0205
     14 CBQ        13.7741   -3.4115  -25.7972 C.ar        1 MOL      -0.0393
     15 CAS        15.0155   -2.8313  -25.4375 C.ar        1 MOL      -0.0602
     16 CAM        15.7603   -2.0896  -26.3707 C.ar        1 MOL      -0.0686
     17 CAI        15.2796   -1.9173  -27.6789 C.ar        1 MOL      -0.0687
     18 CAN        14.0531   -2.4919  -28.0544 C.ar        1 MOL      -0.0686
     19 CAT        13.2966   -3.2216  -27.1174 C.ar        1 MOL      -0.0602
     20 PBY        12.6389   -6.7012  -25.8081 P.3         1 MOL       0.0154
     21 OAG        13.3011   -6.5383  -27.0820 O.co2       1 MOL      -0.6174
     22 OAD        11.2638   -6.3528  -26.0689 O.co2       1 MOL      -0.6174
     23 N          14.7754   -9.5808  -27.1272 N.am        1 MOL      -0.2694
     24 CA         15.9852   -9.5069  -27.8946 C.3         1 MOL       0.1024
     25 C          16.5223   -8.1398  -27.7195 C.2         1 MOL       0.0619
     26 OXT        16.5535   -7.2251  -28.7229 O.co2       1 MOL      -0.5665
     27 O          17.1457   -7.8268  -26.5552 O.co2       1 MOL      -0.5665
     28 CB         15.9449  -10.0070  -29.3764 C.3         1 MOL       0.0108
     29 CG         15.3125  -11.3282  -29.6615 C.ar        1 MOL      -0.0499
     30 CD1        14.9149  -12.2414  -28.6478 C.ar        1 MOL      -0.0686
     31 CE1        14.2620  -13.4449  -28.9632 C.ar        1 MOL      -0.0398
     32 CZ         14.0132  -13.7857  -30.3026 C.ar        1 MOL       0.0805
     33 OH         13.3412  -14.9264  -30.5928 O.3         1 MOL      -0.3376
     34 CE2        14.4302  -12.9098  -31.3244 C.ar        1 MOL      -0.0398
     35 CD2        15.0875  -11.7033  -31.0078 C.ar        1 MOL      -0.0686
     36 CBF        12.6885   -8.3172  -25.3504 C.3         1 MOL       0.0375
     37 CBV        12.4402   -9.3707  -26.4875 C.3         1 MOL       0.0788
     38 CBN        13.5123   -9.3651  -27.4934 C.2         1 MOL       0.1848
     39 OAC        13.2365   -9.1003  -28.6553 O.2         1 MOL      -0.3964
     40 CBC        12.1363  -10.8078  -25.9405 C.3         1 MOL       0.0422
     41 CBS        13.2275  -11.5575  -25.2800 C.2         1 MOL       0.1411
     42 CBA        13.8597  -11.3131  -24.0667 C.2         1 MOL      -0.0269
     43 OBK        13.7757  -12.6852  -25.7844 O.3         1 MOL      -0.1670
     44 NBG        14.7001  -13.1226  -24.9726 N.2         1 MOL      -0.1519
     45 CBU        14.8108  -12.3178  -23.8948 C.2         1 MOL       0.0430
     46 CBT        15.7331  -12.5149  -22.8286 C.ar        1 MOL      -0.0150
     47 CAU        15.6127  -11.8189  -21.5998 C.ar        1 MOL      -0.0551
     48 CAO        16.5131  -12.0473  -20.5408 C.ar        1 MOL      -0.0621
     49 CAJ        17.5524  -12.9792  -20.6911 C.ar        1 MOL      -0.0626
     50 CAP        17.6958  -13.6731  -21.9030 C.ar        1 MOL      -0.0621
     51 CAV        16.7969  -13.4444  -22.9613 C.ar        1 MOL      -0.0551
     52 H1         17.3768   -3.7920  -25.9727 H           1 MOL       0.0557
     53 H2         17.7654   -2.8154  -28.1369 H           1 MOL       0.0599
     54 H3         19.2222   -3.9209  -29.7379 H           1 MOL       0.0559
     55 H4         20.3501   -5.9809  -29.1289 H           1 MOL       0.0599
     56 H5         20.0295   -6.9359  -26.9413 H           1 MOL       0.0557
     57 H6         18.9117   -5.5143  -24.1720 H           1 MOL       0.0776
     58 H7         18.7257   -7.1001  -24.8852 H           1 MOL       0.0776
     59 H8         14.8487   -6.2206  -23.3912 H           1 MOL       0.1888
     60 H9         12.7583   -5.9750  -23.7220 H           1 MOL       0.0787
     61 H10        13.1132   -3.6996  -23.8142 H           1 MOL       0.0465
     62 H11        11.9102   -4.0325  -25.0148 H           1 MOL       0.0465
     63 H12        15.3785   -2.9317  -24.4880 H           1 MOL       0.0557
     64 H13        16.6411   -1.6549  -26.0912 H           1 MOL       0.0599
     65 H14        15.8215   -1.3791  -28.3592 H           1 MOL       0.0559
     66 H15        13.7131   -2.3796  -29.0103 H           1 MOL       0.0599
     67 H16        12.3969   -3.6163  -27.4080 H           1 MOL       0.0557
     68 H17        14.9123   -9.7626  -26.1824 H           1 MOL       0.1876
     69 H18        16.7027  -10.1620  -27.3918 H           1 MOL       0.0747
     70 H19        16.9774  -10.0581  -29.7423 H           1 MOL       0.0446
     71 H20        15.4307   -9.2512  -29.9748 H           1 MOL       0.0446
     72 H21        15.1079  -12.0521  -27.6659 H           1 MOL       0.0530
     73 H22        13.9689  -14.0736  -28.2091 H           1 MOL       0.0525
     74 H23        14.0424  -15.5915  -30.7653 H           1 MOL       0.2458
     75 H24        14.2403  -13.1421  -32.3022 H           1 MOL       0.0525
     76 H25        15.3824  -11.0912  -31.7721 H           1 MOL       0.0530
     77 H26        11.9236   -8.4477  -24.5787 H           1 MOL       0.0495
     78 H27        13.6526   -8.5086  -24.8778 H           1 MOL       0.0495
     79 H28        11.5068   -9.0766  -26.9833 H           1 MOL       0.0581
     80 H29        11.7886  -11.4127  -26.7810 H           1 MOL       0.0513
     81 H30        11.3062  -10.7457  -25.2361 H           1 MOL       0.0513
     82 H31        13.6533  -10.5406  -23.4283 H           1 MOL       0.0289
     83 H32        14.8530  -11.1499  -21.4517 H           1 MOL       0.0616
     84 H33        16.4075  -11.5410  -19.6595 H           1 MOL       0.0615
     85 H34        18.1970  -13.1593  -19.9202 H           1 MOL       0.0610
     86 H35        18.4524  -14.3547  -22.0102 H           1 MOL       0.0615
     87 H36        16.9302  -13.9672  -23.8303 H           1 MOL       0.0616
@<TRIPOS>BOND
     1     1     2  ar
     2     6     1  ar
     3     2     3  ar
     4     4     3  ar
     5     5     4  ar
     6     6     5  ar
     7     7     6   1
     8     8     7   1
     9     9     8   1
    10     9    10   2
    11    11     9  am
    12    12    11   1
    13    12    13   1
    14    20    12   1
    15    13    14   1
    16    14    15  ar
    17    14    19  ar
    18    15    16  ar
    19    16    17  ar
    20    18    17  ar
    21    19    18  ar
    22    20    21  ar
    23    20    22  ar
    24    36    20   1
    25    23    24   1
    26    38    23  am
    27    24    25   1
    28    24    28   1
    29    25    26  ar
    30    25    27  ar
    31    28    29   1
    32    29    30  ar
    33    29    35  ar
    34    30    31  ar
    35    31    32  ar
    36    32    33   1
    37    34    32  ar
    38    35    34  ar
    39    37    36   1
    40    37    38   1
    41    37    40   1
    42    38    39   2
    43    40    41   1
    44    41    42   2
    45    41    43   1
    46    42    45   1
    47    43    44   1
    48    44    45   2
    49    45    46   1
    50    46    47  ar
    51    46    51  ar
    52    47    48  ar
    53    48    49  ar
    54    49    50  ar
    55    50    51  ar
    56     1    52   1
    57     2    53   1
    58     3    54   1
    59     4    55   1
    60     5    56   1
    61     7    57   1
    62     7    58   1
    63    11    59   1
    64    12    60   1
    65    13    61   1
    66    13    62   1
    67    15    63   1
    68    16    64   1
    69    17    65   1
    70    18    66   1
    71    19    67   1
    72    23    68   1
    73    24    69   1
    74    28    70   1
    75    28    71   1
    76    30    72   1
    77    31    73   1
    78    33    74   1
    79    34    75   1
    80    35    76   1
    81    36    77   1
    82    36    78   1
    83    37    79   1
    84    40    80   1
    85    40    81   1
    86    42    82   1
    87    47    83   1
    88    48    84   1
    89    49    85   1
    90    50    86   1
    91    51    87   1
@<TRIPOS>SUBSTRUCTURE
     1  MOL      1

