@<TRIPOS>MOLECULE
2xys_ligand_027
    50    56
SMALL
GAST_HUCK
****
This file was generated by PARSER (from files_GN.cpp)

@<TRIPOS>ATOM
      1 CAV       -39.5941    7.6268  -15.7708 C.3         1 SY9      -0.0392
      2 CAU       -40.4710    7.9598  -14.5369 C.3         1 SY9      -0.0074
      3 CAT       -41.9623    7.7612  -14.9626 C.3         1 SY9      -0.0009
      4 CAN       -42.1758    6.2191  -15.1114 C.3         1 SY9       0.0127
      5 CAK       -41.2089    5.5831  -16.1701 C.3         1 SY9       0.0377
      6 NAH       -41.0828    4.2108  -15.7765 N.pl3       1 SY9      -0.2664
      7 CAA       -39.8194    3.9456  -15.3751 C.ar        1 SY9       0.0752
      8 CAF       -39.2934    2.7712  -14.7935 C.ar        1 SY9      -0.0107
      9 CAE       -37.9417    2.7405  -14.3966 C.ar        1 SY9      -0.0448
     10 CAD       -37.1231    3.8707  -14.5872 C.ar        1 SY9      -0.0454
     11 CAC       -37.6476    5.0375  -15.1761 C.ar        1 SY9      -0.0502
     12 CAB       -39.0065    5.0707  -15.5560 C.ar        1 SY9      -0.0229
     13 CAG       -39.7422    6.1478  -16.2522 C.3         1 SY9       0.0241
     14 CAW       -39.2401    6.2840  -17.7090 C.3         1 SY9      -0.0311
     15 CAX       -39.8329    7.6233  -18.1765 C.3         1 SY9      -0.0400
     16 NAY       -39.9409    8.4786  -16.9610 N.4         1 SY9       0.2407
     17 CAS       -41.2187    9.2654  -16.8600 C.3         1 SY9      -0.0074
     18 CAR       -42.2968    8.5198  -16.1878 C.2         1 SY9      -0.0310
     19 CAQ       -43.5478    8.5346  -16.6929 C.2         1 SY9      -0.0782
     20 CAP       -44.6511    7.7531  -16.1713 C.3         1 SY9       0.0552
     21 OAO       -44.3926    6.3507  -16.3474 O.3         1 SY9      -0.3712
     22 CAM       -43.6233    5.6507  -15.3430 C.3         1 SY9       0.0708
     23 CAL       -43.5955    4.1359  -15.7792 C.3         1 SY9       0.0233
     24 CAI       -42.2482    3.3899  -15.5081 C.3         1 SY9       0.1466
     25 OAJ       -42.1776    2.1771  -16.2514 O.3         1 SY9      -0.3686
     26 H1        -38.5492    7.8280  -15.5110 H           1 SY9       0.0728
     27 H2        -40.2971    8.9944  -14.2282 H           1 SY9       0.0333
     28 H3        -40.1919    7.3185  -13.6977 H           1 SY9       0.0333
     29 H4        -42.5821    8.1276  -14.1372 H           1 SY9       0.0453
     30 H5        -41.8967    5.8196  -14.1249 H           1 SY9       0.0364
     31 H6        -41.6819    5.6364  -17.1569 H           1 SY9       0.0464
     32 H7        -39.8823    1.9501  -14.6504 H           1 SY9       0.0603
     33 H8        -37.5560    1.8964  -13.9678 H           1 SY9       0.0812
     34 H9        -36.1410    3.8411  -14.3081 H           1 SY9       0.0608
     35 H10       -37.0431    5.8436  -15.3389 H           1 SY9       0.0786
     36 H11       -39.5593    5.4505  -18.3426 H           1 SY9       0.0203
     37 H12       -38.1473    6.3467  -17.7352 H           1 SY9       0.0203
     38 H13       -40.8036    7.4399  -18.6491 H           1 SY9       0.0805
     39 H14       -39.1789    8.0979  -18.9123 H           1 SY9       0.0805
     40 H15       -39.1942    9.1742  -17.0385 H           1 SY9       0.2039
     41 H16       -41.5052    9.6388  -17.8472 H           1 SY9       0.0964
     42 H17       -41.0127   10.1522  -16.2554 H           1 SY9       0.0964
     43 H18       -43.7332    9.0918  -17.4966 H           1 SY9       0.0266
     44 H19       -45.5514    7.9837  -16.7459 H           1 SY9       0.0635
     45 H20       -44.8598    8.0100  -15.1295 H           1 SY9       0.0635
     46 H21       -44.1721    5.7161  -14.3975 H           1 SY9       0.0604
     47 H22       -43.7772    4.0738  -16.8565 H           1 SY9       0.0338
     48 H23       -44.4073    3.5915  -15.2902 H           1 SY9       0.0338
     49 H24       -42.2401    3.1103  -14.4522 H           1 SY9       0.0886
     50 H25       -41.7327    2.4086  -17.0852 H           1 SY9       0.2123
@<TRIPOS>BOND
     1     1     2   1
     2     1    13   1
     3     1    16   1
     4     2     3   1
     5     3     4   1
     6     3    18   1
     7     4     5   1
     8     4    22   1
     9     5     6   1
    10     5    13   1
    11     6     7   1
    12     6    24   1
    13     7     8  ar
    14     7    12  ar
    15     8     9  ar
    16     9    10  ar
    17    10    11  ar
    18    11    12  ar
    19    12    13   1
    20    13    14   1
    21    14    15   1
    22    15    16   1
    23    16    17   1
    24    17    18   1
    25    18    19   2
    26    19    20   1
    27    20    21   1
    28    21    22   1
    29    22    23   1
    30    23    24   1
    31    24    25   1
    32     1    26   1
    33     2    27   1
    34     2    28   1
    35     3    29   1
    36     4    30   1
    37     5    31   1
    38     8    32   1
    39     9    33   1
    40    10    34   1
    41    11    35   1
    42    14    36   1
    43    14    37   1
    44    15    38   1
    45    15    39   1
    46    16    40   1
    47    17    41   1
    48    17    42   1
    49    19    43   1
    50    20    44   1
    51    20    45   1
    52    22    46   1
    53    23    47   1
    54    23    48   1
    55    24    49   1
    56    25    50   1
@<TRIPOS>SUBSTRUCTURE
     1  SY9      1

