@<TRIPOS>MOLECULE
2xys_ligand_070
    50    56
SMALL
GAST_HUCK
****
This file was generated by PARSER (from files_GN.cpp)

@<TRIPOS>ATOM
      1 CAV       -32.3973    3.1280  -15.1765 C.3         1 SY9      -0.0392
      2 CAU       -32.7067    4.0317  -13.9507 C.3         1 SY9      -0.0074
      3 CAT       -32.7979    3.0824  -12.7088 C.3         1 SY9      -0.0009
      4 CAN       -31.3317    2.6096  -12.4502 C.3         1 SY9       0.0127
      5 CAK       -30.8275    1.7073  -13.6283 C.3         1 SY9       0.0377
      6 NAH       -29.4107    1.6237  -13.4702 N.pl3       1 SY9      -0.2664
      7 CAA       -28.8006    2.4023  -14.3910 C.ar        1 SY9       0.0752
      8 CAF       -27.4433    2.7704  -14.5119 C.ar        1 SY9      -0.0107
      9 CAE       -27.0496    3.6297  -15.5571 C.ar        1 SY9      -0.0448
     10 CAD       -28.0021    4.1151  -16.4749 C.ar        1 SY9      -0.0454
     11 CAC       -29.3518    3.7360  -16.3583 C.ar        1 SY9      -0.0502
     12 CAB       -29.7488    2.8932  -15.3029 C.ar        1 SY9      -0.0229
     13 CAG       -31.0768    2.2915  -15.0625 C.3         1 SY9       0.0241
     14 CAW       -31.3562    1.1870  -16.1143 C.3         1 SY9      -0.0311
     15 CAX       -32.8522    0.8787  -15.9355 C.3         1 SY9      -0.0400
     16 NAY       -33.4880    2.1146  -15.3960 N.4         1 SY9       0.2407
     17 CAS       -34.4216    1.8822  -14.2352 C.3         1 SY9      -0.0074
     18 CAR       -33.7388    1.9555  -12.9295 C.2         1 SY9      -0.0310
     19 CAQ       -33.9107    0.9678  -12.0249 C.2         1 SY9      -0.0782
     20 CAP       -33.2223    0.8596  -10.7513 C.3         1 SY9       0.0552
     21 OAO       -31.7950    0.6987  -10.9006 O.3         1 SY9      -0.3712
     22 CAM       -31.0320    1.9090  -11.0909 C.3         1 SY9       0.0708
     23 CAL       -29.4983    1.6133  -11.0004 C.3         1 SY9       0.0233
     24 CAI       -28.8733    0.9887  -12.2896 C.3         1 SY9       0.1466
     25 OAJ       -29.1206   -0.4162  -12.3558 O.3         1 SY9      -0.3686
     26 H1        -32.3513    3.7698  -16.0581 H           1 SY9       0.0728
     27 H2        -33.6545    4.5565  -14.1002 H           1 SY9       0.0333
     28 H3        -31.9374    4.8018  -13.8405 H           1 SY9       0.0333
     29 H4        -33.1454    3.6751  -11.8584 H           1 SY9       0.0453
     30 H5        -30.7153    3.5188  -12.4208 H           1 SY9       0.0364
     31 H6        -31.2769    0.7125  -13.5487 H           1 SY9       0.0464
     32 H7        -26.7439    2.4275  -13.8521 H           1 SY9       0.0603
     33 H8        -26.0685    3.8988  -15.6541 H           1 SY9       0.0812
     34 H9        -27.7111    4.7308  -17.2368 H           1 SY9       0.0608
     35 H10       -30.0293    4.0563  -17.0469 H           1 SY9       0.0786
     36 H11       -30.7392    0.2952  -15.9669 H           1 SY9       0.0203
     37 H12       -31.1855    1.5623  -17.1291 H           1 SY9       0.0203
     38 H13       -32.9597    0.0230  -15.2611 H           1 SY9       0.0805
     39 H14       -33.3079    0.6144  -16.8927 H           1 SY9       0.0805
     40 H15       -34.0743    2.4832  -16.1490 H           1 SY9       0.2039
     41 H16       -35.1721    2.6755  -14.2540 H           1 SY9       0.0964
     42 H17       -34.9801    0.9514  -14.3811 H           1 SY9       0.0964
     43 H18       -34.5506    0.2377  -12.2385 H           1 SY9       0.0266
     44 H19       -33.5780   -0.0357  -10.2348 H           1 SY9       0.0635
     45 H20       -33.4785    1.7127  -10.1168 H           1 SY9       0.0635
     46 H21       -31.2658    2.5974  -10.2726 H           1 SY9       0.0604
     47 H22       -29.3010    0.9751  -10.1386 H           1 SY9       0.0338
     48 H23       -28.9835    2.5610  -10.8148 H           1 SY9       0.0338
     49 H24       -27.7895    1.1019  -12.2374 H           1 SY9       0.0886
     50 H25       -30.0951   -0.5192  -12.3628 H           1 SY9       0.2123
@<TRIPOS>BOND
     1     1     2   1
     2     1    13   1
     3     1    16   1
     4     2     3   1
     5     3     4   1
     6     3    18   1
     7     4     5   1
     8     4    22   1
     9     5     6   1
    10     5    13   1
    11     6     7   1
    12     6    24   1
    13     7     8  ar
    14     7    12  ar
    15     8     9  ar
    16     9    10  ar
    17    10    11  ar
    18    11    12  ar
    19    12    13   1
    20    13    14   1
    21    14    15   1
    22    15    16   1
    23    16    17   1
    24    17    18   1
    25    18    19   2
    26    19    20   1
    27    20    21   1
    28    21    22   1
    29    22    23   1
    30    23    24   1
    31    24    25   1
    32     1    26   1
    33     2    27   1
    34     2    28   1
    35     3    29   1
    36     4    30   1
    37     5    31   1
    38     8    32   1
    39     9    33   1
    40    10    34   1
    41    11    35   1
    42    14    36   1
    43    14    37   1
    44    15    38   1
    45    15    39   1
    46    16    40   1
    47    17    41   1
    48    17    42   1
    49    19    43   1
    50    20    44   1
    51    20    45   1
    52    22    46   1
    53    23    47   1
    54    23    48   1
    55    24    49   1
    56    25    50   1
@<TRIPOS>SUBSTRUCTURE
     1  SY9      1

