@<TRIPOS>MOLECULE
2xys_ligand_030
    50    56
SMALL
GAST_HUCK
****
This file was generated by PARSER (from files_GN.cpp)

@<TRIPOS>ATOM
      1 CAV       -49.4982   -3.1258  -19.6508 C.3         1 SY9      -0.0392
      2 CAU       -48.0143   -2.7223  -19.8545 C.3         1 SY9      -0.0074
      3 CAT       -47.3311   -2.7571  -18.4465 C.3         1 SY9      -0.0009
      4 CAN       -47.2127   -4.2650  -18.0503 C.3         1 SY9       0.0127
      5 CAK       -48.6029   -4.9870  -18.0061 C.3         1 SY9       0.0377
      6 NAH       -48.3001   -6.3687  -18.2378 N.pl3       1 SY9      -0.2664
      7 CAA       -48.8230   -6.7635  -19.4194 C.ar        1 SY9       0.0752
      8 CAF       -48.6530   -7.9882  -20.1072 C.ar        1 SY9      -0.0107
      9 CAE       -49.2617   -8.1690  -21.3624 C.ar        1 SY9      -0.0448
     10 CAD       -50.0375   -7.1391  -21.9314 C.ar        1 SY9      -0.0454
     11 CAC       -50.2079   -5.9192  -21.2468 C.ar        1 SY9      -0.0502
     12 CAB       -49.5820   -5.7360  -19.9944 C.ar        1 SY9      -0.0229
     13 CAG       -49.6753   -4.5727  -19.0828 C.3         1 SY9       0.0241
     14 CAW       -51.1057   -4.4656  -18.4914 C.3         1 SY9      -0.0311
     15 CAX       -51.1283   -3.0586  -17.8742 C.3         1 SY9      -0.0400
     16 NAY       -50.1998   -2.2206  -18.6850 N.4         1 SY9       0.2407
     17 CAS       -49.3244   -1.3078  -17.8683 C.3         1 SY9      -0.0074
     18 CAR       -48.0616   -1.9461  -17.4494 C.2         1 SY9      -0.0310
     19 CAQ       -47.6137   -1.7913  -16.1855 C.2         1 SY9      -0.0782
     20 CAP       -46.4571   -2.4667  -15.6378 C.3         1 SY9       0.0552
     21 OAO       -46.6948   -3.8778  -15.5914 O.3         1 SY9      -0.3712
     22 CAM       -46.3959   -4.6649  -16.7668 C.3         1 SY9       0.0708
     23 CAL       -46.6313   -6.1706  -16.3655 C.3         1 SY9       0.0233
     24 CAI       -47.2623   -7.0556  -17.4905 C.3         1 SY9       0.1466
     25 OAJ       -47.7672   -8.2690  -16.9357 O.3         1 SY9      -0.3686
     26 H1        -50.0068   -3.0401  -20.6119 H           1 SY9       0.0728
     27 H2        -47.9538   -1.7162  -20.2788 H           1 SY9       0.0333
     28 H3        -47.5266   -3.3953  -20.5687 H           1 SY9       0.0333
     29 H4        -46.3240   -2.3423  -18.5662 H           1 SY9       0.0453
     30 H5        -46.6314   -4.7048  -18.8715 H           1 SY9       0.0364
     31 H6        -49.0283   -4.8762  -17.0005 H           1 SY9       0.0464
     32 H7        -48.0930   -8.7375  -19.6994 H           1 SY9       0.0603
     33 H8        -49.1417   -9.0504  -21.8637 H           1 SY9       0.0812
     34 H9        -50.4792   -7.2774  -22.8427 H           1 SY9       0.0608
     35 H10       -50.7863   -5.1827  -21.6556 H           1 SY9       0.0786
     36 H11       -51.3206   -5.2364  -17.7487 H           1 SY9       0.0203
     37 H12       -51.8652   -4.5222  -19.2806 H           1 SY9       0.0203
     38 H13       -50.8255   -3.1250  -16.8231 H           1 SY9       0.0805
     39 H14       -52.1367   -2.6333  -17.9110 H           1 SY9       0.0805
     40 H15       -50.7903   -1.6042  -19.2457 H           1 SY9       0.2039
     41 H16       -49.8920   -0.8999  -17.0211 H           1 SY9       0.0964
     42 H17       -49.0645   -0.4485  -18.4938 H           1 SY9       0.0964
     43 H18       -48.1285   -1.2082  -15.5640 H           1 SY9       0.0266
     44 H19       -46.3083   -2.1375  -14.6065 H           1 SY9       0.0635
     45 H20       -45.5485   -2.2138  -16.1892 H           1 SY9       0.0635
     46 H21       -45.3286   -4.5440  -16.9939 H           1 SY9       0.0604
     47 H22       -47.3196   -6.2011  -15.5095 H           1 SY9       0.0338
     48 H23       -45.6924   -6.6131  -16.0300 H           1 SY9       0.0338
     49 H24       -46.4603   -7.3218  -18.1821 H           1 SY9       0.0886
     50 H25       -46.9964   -8.6852  -16.5116 H           1 SY9       0.2123
@<TRIPOS>BOND
     1     1     2   1
     2     1    13   1
     3     1    16   1
     4     2     3   1
     5     3     4   1
     6     3    18   1
     7     4     5   1
     8     4    22   1
     9     5     6   1
    10     5    13   1
    11     6     7   1
    12     6    24   1
    13     7     8  ar
    14     7    12  ar
    15     8     9  ar
    16     9    10  ar
    17    10    11  ar
    18    11    12  ar
    19    12    13   1
    20    13    14   1
    21    14    15   1
    22    15    16   1
    23    16    17   1
    24    17    18   1
    25    18    19   2
    26    19    20   1
    27    20    21   1
    28    21    22   1
    29    22    23   1
    30    23    24   1
    31    24    25   1
    32     1    26   1
    33     2    27   1
    34     2    28   1
    35     3    29   1
    36     4    30   1
    37     5    31   1
    38     8    32   1
    39     9    33   1
    40    10    34   1
    41    11    35   1
    42    14    36   1
    43    14    37   1
    44    15    38   1
    45    15    39   1
    46    16    40   1
    47    17    41   1
    48    17    42   1
    49    19    43   1
    50    20    44   1
    51    20    45   1
    52    22    46   1
    53    23    47   1
    54    23    48   1
    55    24    49   1
    56    25    50   1
@<TRIPOS>SUBSTRUCTURE
     1  SY9      1

