@<TRIPOS>MOLECULE
2xys_ligand_043
    50    56
SMALL
GAST_HUCK
****
This file was generated by PARSER (from files_GN.cpp)

@<TRIPOS>ATOM
      1 CAV       -49.2503   -3.6684  -15.8969 C.3         1 SY9      -0.0392
      2 CAU       -48.0992   -4.4850  -16.5412 C.3         1 SY9      -0.0074
      3 CAT       -48.1917   -4.2607  -18.0866 C.3         1 SY9      -0.0009
      4 CAN       -47.7328   -2.7928  -18.3412 C.3         1 SY9       0.0127
      5 CAK       -48.6258   -1.7475  -17.5913 C.3         1 SY9       0.0377
      6 NAH       -47.7723   -0.6086  -17.4292 N.pl3       1 SY9      -0.2664
      7 CAA       -47.5024   -0.4086  -16.1215 C.ar        1 SY9       0.0752
      8 CAF       -46.6295    0.5227  -15.5217 C.ar        1 SY9      -0.0107
      9 CAE       -46.5012    0.5431  -14.1195 C.ar        1 SY9      -0.0448
     10 CAD       -47.2243   -0.3708  -13.3240 C.ar        1 SY9      -0.0454
     11 CAC       -48.0882   -1.3039  -13.9259 C.ar        1 SY9      -0.0502
     12 CAB       -48.2140   -1.3198  -15.3301 C.ar        1 SY9      -0.0229
     13 CAG       -49.1302   -2.1313  -16.1503 C.3         1 SY9       0.0241
     14 CAW       -50.5915   -1.6952  -15.8937 C.3         1 SY9      -0.0311
     15 CAX       -51.4173   -2.8173  -16.5382 C.3         1 SY9      -0.0400
     16 NAY       -50.5999   -4.0585  -16.4350 N.4         1 SY9       0.2407
     17 CAS       -50.6007   -4.9119  -17.6743 C.3         1 SY9      -0.0074
     18 CAR       -49.5404   -4.5467  -18.6241 C.2         1 SY9      -0.0310
     19 CAQ       -49.8098   -4.4920  -19.9449 C.2         1 SY9      -0.0782
     20 CAP       -48.8719   -4.0437  -20.9524 C.3         1 SY9       0.0552
     21 OAO       -48.5610   -2.6598  -20.7448 O.3         1 SY9      -0.3712
     22 CAM       -47.5090   -2.3141  -19.8178 C.3         1 SY9       0.0708
     23 CAL       -47.3624   -0.7529  -19.9074 C.3         1 SY9       0.0233
     24 CAI       -47.0727   -0.0224  -18.5541 C.3         1 SY9       0.1466
     25 OAJ       -47.4413    1.3519  -18.6575 O.3         1 SY9      -0.3686
     26 H1        -49.2512   -3.8678  -14.8201 H           1 SY9       0.0728
     27 H2        -48.2124   -5.5458  -16.3041 H           1 SY9       0.0333
     28 H3        -47.1351   -4.1674  -16.1300 H           1 SY9       0.0333
     29 H4        -47.4711   -4.9404  -18.5519 H           1 SY9       0.0453
     30 H5        -46.7259   -2.7471  -17.9005 H           1 SY9       0.0364
     31 H6        -49.4764   -1.4745  -18.2254 H           1 SY9       0.0464
     32 H7        -46.0880    1.1746  -16.0924 H           1 SY9       0.0603
     33 H8        -45.8639    1.2098  -13.6778 H           1 SY9       0.0812
     34 H9        -47.1103   -0.3679  -12.3069 H           1 SY9       0.0608
     35 H10       -48.6219   -1.9560  -13.3482 H           1 SY9       0.0786
     36 H11       -50.8100   -0.7178  -16.3258 H           1 SY9       0.0203
     37 H12       -50.8167   -1.6596  -14.8223 H           1 SY9       0.0203
     38 H13       -51.6457   -2.5515  -17.5753 H           1 SY9       0.0805
     39 H14       -52.3576   -2.9461  -16.0000 H           1 SY9       0.0805
     40 H15       -51.0452   -4.6261  -15.7101 H           1 SY9       0.2039
     41 H16       -51.5997   -4.9210  -18.1233 H           1 SY9       0.0964
     42 H17       -50.4048   -5.9408  -17.3725 H           1 SY9       0.0964
     43 H18       -50.7200   -4.7402  -20.2611 H           1 SY9       0.0266
     44 H19       -49.3425   -4.1149  -21.9357 H           1 SY9       0.0635
     45 H20       -47.9771   -4.6715  -20.9738 H           1 SY9       0.0635
     46 H21       -46.5785   -2.7651  -20.1806 H           1 SY9       0.0604
     47 H22       -48.2948   -0.3299  -20.2956 H           1 SY9       0.0338
     48 H23       -46.5790   -0.5122  -20.6298 H           1 SY9       0.0338
     49 H24       -45.9962   -0.0862  -18.3710 H           1 SY9       0.0886
     50 H25       -47.0674    1.6546  -19.5120 H           1 SY9       0.2123
@<TRIPOS>BOND
     1     1     2   1
     2     1    13   1
     3     1    16   1
     4     2     3   1
     5     3     4   1
     6     3    18   1
     7     4     5   1
     8     4    22   1
     9     5     6   1
    10     5    13   1
    11     6     7   1
    12     6    24   1
    13     7     8  ar
    14     7    12  ar
    15     8     9  ar
    16     9    10  ar
    17    10    11  ar
    18    11    12  ar
    19    12    13   1
    20    13    14   1
    21    14    15   1
    22    15    16   1
    23    16    17   1
    24    17    18   1
    25    18    19   2
    26    19    20   1
    27    20    21   1
    28    21    22   1
    29    22    23   1
    30    23    24   1
    31    24    25   1
    32     1    26   1
    33     2    27   1
    34     2    28   1
    35     3    29   1
    36     4    30   1
    37     5    31   1
    38     8    32   1
    39     9    33   1
    40    10    34   1
    41    11    35   1
    42    14    36   1
    43    14    37   1
    44    15    38   1
    45    15    39   1
    46    16    40   1
    47    17    41   1
    48    17    42   1
    49    19    43   1
    50    20    44   1
    51    20    45   1
    52    22    46   1
    53    23    47   1
    54    23    48   1
    55    24    49   1
    56    25    50   1
@<TRIPOS>SUBSTRUCTURE
     1  SY9      1

