@<TRIPOS>MOLECULE
2xys_ligand_076
    50    56
SMALL
GAST_HUCK
****
This file was generated by PARSER (from files_GN.cpp)

@<TRIPOS>ATOM
      1 CAV       -34.6848    1.4575  -15.9205 C.3         1 SY9      -0.0392
      2 CAU       -35.2970    0.0373  -15.7761 C.3         1 SY9      -0.0074
      3 CAT       -36.5504   -0.0090  -16.7165 C.3         1 SY9      -0.0009
      4 CAN       -35.9792   -0.0364  -18.1680 C.3         1 SY9       0.0127
      5 CAK       -35.2746    1.3231  -18.4904 C.3         1 SY9       0.0377
      6 NAH       -34.5067    1.0732  -19.6661 N.pl3       1 SY9      -0.2664
      7 CAA       -33.1991    0.9850  -19.3352 C.ar        1 SY9       0.0752
      8 CAF       -32.0998    0.5966  -20.1289 C.ar        1 SY9      -0.0107
      9 CAE       -30.8175    0.5474  -19.5498 C.ar        1 SY9      -0.0448
     10 CAD       -30.6350    0.8831  -18.1931 C.ar        1 SY9      -0.0454
     11 CAC       -31.7283    1.2868  -17.4062 C.ar        1 SY9      -0.0502
     12 CAB       -33.0152    1.3257  -17.9848 C.ar        1 SY9      -0.0229
     13 CAG       -34.2736    1.8269  -17.3885 C.3         1 SY9       0.0241
     14 CAW       -34.2563    3.3754  -17.2643 C.3         1 SY9      -0.0311
     15 CAX       -35.4495    3.7171  -16.3617 C.3         1 SY9      -0.0400
     16 NAY       -35.6697    2.5209  -15.5044 N.4         1 SY9       0.2407
     17 CAS       -37.1126    2.0996  -15.4253 C.3         1 SY9      -0.0074
     18 CAR       -37.4866    1.1231  -16.4722 C.2         1 SY9      -0.0310
     19 CAQ       -38.5921    1.3236  -17.2185 C.2         1 SY9      -0.0782
     20 CAP       -39.0261    0.4923  -18.3317 C.3         1 SY9       0.0552
     21 OAO       -38.0870    0.4944  -19.4291 O.3         1 SY9      -0.3712
     22 CAM       -36.9678   -0.4102  -19.3171 C.3         1 SY9       0.0708
     23 CAL       -36.1802   -0.4509  -20.6695 C.3         1 SY9       0.0233
     24 CAI       -35.1989    0.7472  -20.8981 C.3         1 SY9       0.1466
     25 OAJ       -35.9040    1.9127  -21.3438 O.3         1 SY9      -0.3686
     26 H1        -33.8106    1.5269  -15.2615 H           1 SY9       0.0728
     27 H2        -35.5877   -0.1297  -14.7366 H           1 SY9       0.0333
     28 H3        -34.5551   -0.7273  -16.0242 H           1 SY9       0.0333
     29 H4        -37.0760   -0.9451  -16.5424 H           1 SY9       0.0453
     30 H5        -35.2260   -0.8431  -18.1894 H           1 SY9       0.0364
     31 H6        -36.0294    2.0862  -18.6830 H           1 SY9       0.0464
     32 H7        -32.2233    0.3509  -21.1117 H           1 SY9       0.0603
     33 H8        -30.0180    0.2621  -20.1179 H           1 SY9       0.0812
     34 H9        -29.6990    0.8554  -17.7854 H           1 SY9       0.0608
     35 H10       -31.5893    1.5602  -16.4324 H           1 SY9       0.0786
     36 H11       -34.3408    3.8816  -18.2282 H           1 SY9       0.0203
     37 H12       -33.3445    3.7149  -16.7583 H           1 SY9       0.0203
     38 H13       -36.3165    3.9629  -16.9850 H           1 SY9       0.0805
     39 H14       -35.2206    4.5862  -15.7342 H           1 SY9       0.0805
     40 H15       -35.4054    2.7963  -14.5527 H           1 SY9       0.2039
     41 H16       -37.2446    1.6111  -14.4617 H           1 SY9       0.0964
     42 H17       -37.7645    2.9804  -15.4009 H           1 SY9       0.0964
     43 H18       -39.1775    2.0976  -16.9998 H           1 SY9       0.0266
     44 H19       -39.9624    0.8938  -18.7266 H           1 SY9       0.0635
     45 H20       -39.2473   -0.5197  -17.9793 H           1 SY9       0.0635
     46 H21       -37.3539   -1.4214  -19.1349 H           1 SY9       0.0604
     47 H22       -36.8875   -0.5165  -21.5003 H           1 SY9       0.0338
     48 H23       -35.5900   -1.3771  -20.6796 H           1 SY9       0.0338
     49 H24       -34.4882    0.4607  -21.6807 H           1 SY9       0.0886
     50 H25       -36.3270    1.6766  -22.1939 H           1 SY9       0.2123
@<TRIPOS>BOND
     1     1     2   1
     2     1    13   1
     3     1    16   1
     4     2     3   1
     5     3     4   1
     6     3    18   1
     7     4     5   1
     8     4    22   1
     9     5     6   1
    10     5    13   1
    11     6     7   1
    12     6    24   1
    13     7     8  ar
    14     7    12  ar
    15     8     9  ar
    16     9    10  ar
    17    10    11  ar
    18    11    12  ar
    19    12    13   1
    20    13    14   1
    21    14    15   1
    22    15    16   1
    23    16    17   1
    24    17    18   1
    25    18    19   2
    26    19    20   1
    27    20    21   1
    28    21    22   1
    29    22    23   1
    30    23    24   1
    31    24    25   1
    32     1    26   1
    33     2    27   1
    34     2    28   1
    35     3    29   1
    36     4    30   1
    37     5    31   1
    38     8    32   1
    39     9    33   1
    40    10    34   1
    41    11    35   1
    42    14    36   1
    43    14    37   1
    44    15    38   1
    45    15    39   1
    46    16    40   1
    47    17    41   1
    48    17    42   1
    49    19    43   1
    50    20    44   1
    51    20    45   1
    52    22    46   1
    53    23    47   1
    54    23    48   1
    55    24    49   1
    56    25    50   1
@<TRIPOS>SUBSTRUCTURE
     1  SY9      1

