@<TRIPOS>MOLECULE
2xys_ligand_018
    50    56
SMALL
GAST_HUCK
****
This file was generated by PARSER (from files_GN.cpp)

@<TRIPOS>ATOM
      1 CAV       -32.5429   -0.4794  -16.6807 C.3         1 SY9      -0.0392
      2 CAU       -32.5684    0.9184  -17.3633 C.3         1 SY9      -0.0074
      3 CAT       -33.9345    1.5808  -16.9783 C.3         1 SY9      -0.0009
      4 CAN       -33.8109    1.9210  -15.4596 C.3         1 SY9       0.0127
      5 CAK       -33.7345    0.6096  -14.6051 C.3         1 SY9       0.0377
      6 NAH       -33.2803    1.0211  -13.3173 N.pl3       1 SY9      -0.2664
      7 CAA       -31.9808    0.6815  -13.1594 C.ar        1 SY9       0.0752
      8 CAF       -31.0657    1.0352  -12.1446 C.ar        1 SY9      -0.0107
      9 CAE       -29.7346    0.5796  -12.2227 C.ar        1 SY9      -0.0448
     10 CAD       -29.3187   -0.2296  -13.2989 C.ar        1 SY9      -0.0454
     11 CAC       -30.2335   -0.5852  -14.3089 C.ar        1 SY9      -0.0502
     12 CAB       -31.5581   -0.1116  -14.2387 C.ar        1 SY9      -0.0229
     13 CAG       -32.6954   -0.4486  -15.1201 C.3         1 SY9       0.0241
     14 CAW       -33.1515   -1.9069  -14.8556 C.3         1 SY9      -0.0311
     15 CAX       -34.1040   -2.2024  -16.0259 C.3         1 SY9      -0.0400
     16 NAY       -33.6756   -1.3425  -17.1662 N.4         1 SY9       0.2407
     17 CAS       -34.8020   -0.6258  -17.8679 C.3         1 SY9      -0.0074
     18 CAR       -35.0903    0.7005  -17.2844 C.2         1 SY9      -0.0310
     19 CAQ       -36.3589    1.0361  -16.9663 C.2         1 SY9      -0.0782
     20 CAP       -36.7676    2.2511  -16.2806 C.3         1 SY9       0.0552
     21 OAO       -36.2176    2.3568  -14.9499 O.3         1 SY9      -0.3712
     22 CAM       -34.8767    2.8814  -14.8529 C.3         1 SY9       0.0708
     23 CAL       -34.5147    3.1682  -13.3576 C.3         1 SY9       0.0233
     24 CAI       -34.1144    1.9036  -12.5330 C.3         1 SY9       0.1466
     25 OAJ       -35.3031    1.2518  -12.0888 O.3         1 SY9      -0.3686
     26 H1        -31.6046   -0.9739  -16.9515 H           1 SY9       0.0728
     27 H2        -32.4943    0.8100  -18.4490 H           1 SY9       0.0333
     28 H3        -31.7051    1.5114  -17.0486 H           1 SY9       0.0333
     29 H4        -34.0350    2.5089  -17.5493 H           1 SY9       0.0453
     30 H5        -32.8654    2.4685  -15.3439 H           1 SY9       0.0364
     31 H6        -34.7293    0.1570  -14.5259 H           1 SY9       0.0464
     32 H7        -31.3504    1.6221  -11.3598 H           1 SY9       0.0603
     33 H8        -29.0660    0.8353  -11.4910 H           1 SY9       0.0812
     34 H9        -28.3552   -0.5683  -13.3389 H           1 SY9       0.0608
     35 H10       -29.9344   -1.1925  -15.0740 H           1 SY9       0.0786
     36 H11       -33.6489   -2.0260  -13.8872 H           1 SY9       0.0203
     37 H12       -32.3011   -2.5985  -14.8951 H           1 SY9       0.0203
     38 H13       -35.1257   -1.9871  -15.7039 H           1 SY9       0.0805
     39 H14       -34.0503   -3.2552  -16.3095 H           1 SY9       0.0805
     40 H15       -33.2741   -1.9742  -17.8631 H           1 SY9       0.2039
     41 H16       -34.4952   -0.4668  -18.9045 H           1 SY9       0.0964
     42 H17       -35.6825   -1.2743  -17.9236 H           1 SY9       0.0964
     43 H18       -37.0887    0.4001  -17.2006 H           1 SY9       0.0266
     44 H19       -37.8527    2.2372  -16.1628 H           1 SY9       0.0635
     45 H20       -36.5276    3.1244  -16.8901 H           1 SY9       0.0635
     46 H21       -34.8345    3.8401  -15.3812 H           1 SY9       0.0604
     47 H22       -35.3433    3.6888  -12.8686 H           1 SY9       0.0338
     48 H23       -33.6591    3.8522  -13.3452 H           1 SY9       0.0338
     49 H24       -33.5962    2.2308  -11.6306 H           1 SY9       0.0886
     50 H25       -35.2383    0.3014  -12.3319 H           1 SY9       0.2123
@<TRIPOS>BOND
     1     1     2   1
     2     1    13   1
     3     1    16   1
     4     2     3   1
     5     3     4   1
     6     3    18   1
     7     4     5   1
     8     4    22   1
     9     5     6   1
    10     5    13   1
    11     6     7   1
    12     6    24   1
    13     7     8  ar
    14     7    12  ar
    15     8     9  ar
    16     9    10  ar
    17    10    11  ar
    18    11    12  ar
    19    12    13   1
    20    13    14   1
    21    14    15   1
    22    15    16   1
    23    16    17   1
    24    17    18   1
    25    18    19   2
    26    19    20   1
    27    20    21   1
    28    21    22   1
    29    22    23   1
    30    23    24   1
    31    24    25   1
    32     1    26   1
    33     2    27   1
    34     2    28   1
    35     3    29   1
    36     4    30   1
    37     5    31   1
    38     8    32   1
    39     9    33   1
    40    10    34   1
    41    11    35   1
    42    14    36   1
    43    14    37   1
    44    15    38   1
    45    15    39   1
    46    16    40   1
    47    17    41   1
    48    17    42   1
    49    19    43   1
    50    20    44   1
    51    20    45   1
    52    22    46   1
    53    23    47   1
    54    23    48   1
    55    24    49   1
    56    25    50   1
@<TRIPOS>SUBSTRUCTURE
     1  SY9      1

