@<TRIPOS>MOLECULE
2xys_ligand_051
    50    56
SMALL
GAST_HUCK
****
This file was generated by PARSER (from files_GN.cpp)

@<TRIPOS>ATOM
      1 CAV       -51.0874    1.4935  -23.2971 C.3         1 SY9      -0.0392
      2 CAU       -51.9970    1.6926  -22.0552 C.3         1 SY9      -0.0074
      3 CAT       -51.1164    2.3874  -20.9607 C.3         1 SY9      -0.0009
      4 CAN       -50.8825    3.8373  -21.4830 C.3         1 SY9       0.0127
      5 CAK       -49.9906    3.8247  -22.7724 C.3         1 SY9       0.0377
      6 NAH       -50.1167    5.1315  -23.3361 N.pl3       1 SY9      -0.2664
      7 CAA       -50.9375    5.0793  -24.4098 C.ar        1 SY9       0.0752
      8 CAF       -51.5125    6.1315  -25.1539 C.ar        1 SY9      -0.0107
      9 CAE       -52.4075    5.8310  -26.1990 C.ar        1 SY9      -0.0448
     10 CAD       -52.7191    4.4911  -26.5045 C.ar        1 SY9      -0.0454
     11 CAC       -52.1327    3.4395  -25.7723 C.ar        1 SY9      -0.0502
     12 CAB       -51.2501    3.7425  -24.7161 C.ar        1 SY9      -0.0229
     13 CAG       -50.4645    2.8126  -23.8762 C.3         1 SY9       0.0241
     14 CAW       -49.2849    2.2217  -24.6891 C.3         1 SY9      -0.0311
     15 CAX       -48.7671    1.0728  -23.8064 C.3         1 SY9      -0.0400
     16 NAY       -49.9142    0.6144  -22.9682 N.4         1 SY9       0.2407
     17 CAS       -49.5973    0.4416  -21.5015 C.3         1 SY9      -0.0074
     18 CAR       -49.8502    1.6577  -20.7045 C.2         1 SY9      -0.0310
     19 CAQ       -48.9048    2.1145  -19.8535 C.2         1 SY9      -0.0782
     20 CAP       -48.9440    3.3687  -19.1203 C.3         1 SY9       0.0552
     21 OAO       -49.0161    4.5273  -19.9760 O.3         1 SY9      -0.3712
     22 CAM       -50.3298    4.8770  -20.4656 C.3         1 SY9       0.0708
     23 CAL       -50.2906    6.2783  -21.1516 C.3         1 SY9       0.0233
     24 CAI       -49.6537    6.2728  -22.5767 C.3         1 SY9       0.1466
     25 OAJ       -48.2333    6.2119  -22.4412 O.3         1 SY9      -0.3686
     26 H1        -51.6738    0.9942  -24.0728 H           1 SY9       0.0728
     27 H2        -52.3589    0.7273  -21.6935 H           1 SY9       0.0333
     28 H3        -52.8810    2.2794  -22.3188 H           1 SY9       0.0333
     29 H4        -51.6998    2.4296  -20.0353 H           1 SY9       0.0453
     30 H5        -51.8734    4.2308  -21.7529 H           1 SY9       0.0364
     31 H6        -48.9468    3.6326  -22.5063 H           1 SY9       0.0464
     32 H7        -51.3007    7.1055  -24.9356 H           1 SY9       0.0603
     33 H8        -52.8363    6.5881  -26.7341 H           1 SY9       0.0812
     34 H9        -53.3682    4.2805  -27.2681 H           1 SY9       0.0608
     35 H10       -52.3461    2.4696  -26.0118 H           1 SY9       0.0786
     36 H11       -48.5014    2.9569  -24.8945 H           1 SY9       0.0203
     37 H12       -49.6345    1.8141  -25.6433 H           1 SY9       0.0203
     38 H13       -47.9283    1.4363  -23.2049 H           1 SY9       0.0805
     39 H14       -48.4075    0.2452  -24.4231 H           1 SY9       0.0805
     40 H15       -50.1529   -0.3199  -23.3061 H           1 SY9       0.2039
     41 H16       -50.2563   -0.3397  -21.1166 H           1 SY9       0.0964
     42 H17       -48.5823    0.0506  -21.3803 H           1 SY9       0.0964
     43 H18       -48.0880    1.5623  -19.7209 H           1 SY9       0.0266
     44 H19       -48.0166    3.4731  -18.5532 H           1 SY9       0.0635
     45 H20       -49.7561    3.3587  -18.3890 H           1 SY9       0.0635
     46 H21       -51.0177    4.9538  -19.6169 H           1 SY9       0.0604
     47 H22       -49.7593    6.9892  -20.5114 H           1 SY9       0.0338
     48 H23       -51.3205    6.6398  -21.2466 H           1 SY9       0.0338
     49 H24       -49.8951    7.2179  -23.0693 H           1 SY9       0.0886
     50 H25       -47.8803    6.8268  -23.1302 H           1 SY9       0.2123
@<TRIPOS>BOND
     1     1     2   1
     2     1    13   1
     3     1    16   1
     4     2     3   1
     5     3     4   1
     6     3    18   1
     7     4     5   1
     8     4    22   1
     9     5     6   1
    10     5    13   1
    11     6     7   1
    12     6    24   1
    13     7     8  ar
    14     7    12  ar
    15     8     9  ar
    16     9    10  ar
    17    10    11  ar
    18    11    12  ar
    19    12    13   1
    20    13    14   1
    21    14    15   1
    22    15    16   1
    23    16    17   1
    24    17    18   1
    25    18    19   2
    26    19    20   1
    27    20    21   1
    28    21    22   1
    29    22    23   1
    30    23    24   1
    31    24    25   1
    32     1    26   1
    33     2    27   1
    34     2    28   1
    35     3    29   1
    36     4    30   1
    37     5    31   1
    38     8    32   1
    39     9    33   1
    40    10    34   1
    41    11    35   1
    42    14    36   1
    43    14    37   1
    44    15    38   1
    45    15    39   1
    46    16    40   1
    47    17    41   1
    48    17    42   1
    49    19    43   1
    50    20    44   1
    51    20    45   1
    52    22    46   1
    53    23    47   1
    54    23    48   1
    55    24    49   1
    56    25    50   1
@<TRIPOS>SUBSTRUCTURE
     1  SY9      1

