@<TRIPOS>MOLECULE
2xys_ligand_009
    50    56
SMALL
GAST_HUCK
****
This file was generated by PARSER (from files_GN.cpp)

@<TRIPOS>ATOM
      1 CAV       -33.5391    0.4829  -14.2041 C.3         1 SY9      -0.0392
      2 CAU       -33.5493    1.4864  -15.3904 C.3         1 SY9      -0.0074
      3 CAT       -33.1838    2.8896  -14.8024 C.3         1 SY9      -0.0009
      4 CAN       -31.6650    2.8274  -14.4357 C.3         1 SY9       0.0127
      5 CAK       -31.3457    1.7026  -13.3924 C.3         1 SY9       0.0377
      6 NAH       -29.9675    1.3794  -13.6228 N.pl3       1 SY9      -0.2664
      7 CAA       -29.8569    0.1261  -14.1157 C.ar        1 SY9       0.0752
      8 CAF       -28.7179   -0.5381  -14.6177 C.ar        1 SY9      -0.0107
      9 CAE       -28.8509   -1.8369  -15.1466 C.ar        1 SY9      -0.0448
     10 CAD       -30.1107   -2.4670  -15.1719 C.ar        1 SY9      -0.0454
     11 CAC       -31.2444   -1.8083  -14.6571 C.ar        1 SY9      -0.0502
     12 CAB       -31.1088   -0.5019  -14.1423 C.ar        1 SY9      -0.0229
     13 CAG       -32.1405    0.3484  -13.5172 C.3         1 SY9       0.0241
     14 CAW       -32.5596   -0.2227  -12.1376 C.3         1 SY9      -0.0311
     15 CAX       -33.8284    0.5782  -11.8009 C.3         1 SY9      -0.0400
     16 NAY       -34.4855    0.8812  -13.1028 N.4         1 SY9       0.2407
     17 CAS       -35.0517    2.2716  -13.2068 C.3         1 SY9      -0.0074
     18 CAR       -34.0522    3.2567  -13.6614 C.2         1 SY9      -0.0310
     19 CAQ       -33.9343    4.4431  -13.0325 C.2         1 SY9      -0.0782
     20 CAP       -32.9299    5.4417  -13.3409 C.3         1 SY9       0.0552
     21 OAO       -31.6191    4.9466  -13.0317 O.3         1 SY9      -0.3712
     22 CAM       -30.9196    4.1428  -14.0080 C.3         1 SY9       0.0708
     23 CAL       -29.5032    3.8400  -13.3855 C.3         1 SY9       0.0233
     24 CAI       -28.9445    2.4055  -13.6640 C.3         1 SY9       0.1466
     25 OAJ       -27.9191    2.0794  -12.7250 O.3         1 SY9      -0.3686
     26 H1        -33.8657   -0.4918  -14.5789 H           1 SY9       0.0728
     27 H2        -34.5419    1.5133  -15.8495 H           1 SY9       0.0333
     28 H3        -32.8497    1.1657  -16.1682 H           1 SY9       0.0333
     29 H4        -33.3242    3.6223  -15.6022 H           1 SY9       0.0453
     30 H5        -31.1764    2.5549  -15.3825 H           1 SY9       0.0364
     31 H6        -31.4588    2.1113  -12.3828 H           1 SY9       0.0464
     32 H7        -27.8027   -0.0840  -14.6094 H           1 SY9       0.0603
     33 H8        -28.0311   -2.3215  -15.5170 H           1 SY9       0.0812
     34 H9        -30.2024   -3.4083  -15.5612 H           1 SY9       0.0608
     35 H10       -32.1516   -2.2765  -14.6602 H           1 SY9       0.0786
     36 H11       -31.7866   -0.1050  -11.3726 H           1 SY9       0.0203
     37 H12       -32.8132   -1.2852  -12.2144 H           1 SY9       0.0203
     38 H13       -33.5472    1.4833  -11.2537 H           1 SY9       0.0805
     39 H14       -34.4957   -0.0078  -11.1663 H           1 SY9       0.0805
     40 H15       -35.2821    0.2400  -13.1552 H           1 SY9       0.2039
     41 H16       -35.5329    2.5514  -12.2664 H           1 SY9       0.0964
     42 H17       -35.8531    2.2438  -13.9487 H           1 SY9       0.0964
     43 H18       -34.5546    4.6509  -12.2825 H           1 SY9       0.0266
     44 H19       -33.0874    6.3136  -12.7030 H           1 SY9       0.0635
     45 H20       -33.0098    5.7793  -14.3774 H           1 SY9       0.0635
     46 H21       -30.7727    4.7582  -14.9038 H           1 SY9       0.0604
     47 H22       -29.5680    3.9449  -12.2983 H           1 SY9       0.0338
     48 H23       -28.7815    4.5860  -13.7288 H           1 SY9       0.0338
     49 H24       -28.4996    2.4132  -14.6634 H           1 SY9       0.0886
     50 H25       -27.2343    2.7717  -12.8408 H           1 SY9       0.2123
@<TRIPOS>BOND
     1     1     2   1
     2     1    13   1
     3     1    16   1
     4     2     3   1
     5     3     4   1
     6     3    18   1
     7     4     5   1
     8     4    22   1
     9     5     6   1
    10     5    13   1
    11     6     7   1
    12     6    24   1
    13     7     8  ar
    14     7    12  ar
    15     8     9  ar
    16     9    10  ar
    17    10    11  ar
    18    11    12  ar
    19    12    13   1
    20    13    14   1
    21    14    15   1
    22    15    16   1
    23    16    17   1
    24    17    18   1
    25    18    19   2
    26    19    20   1
    27    20    21   1
    28    21    22   1
    29    22    23   1
    30    23    24   1
    31    24    25   1
    32     1    26   1
    33     2    27   1
    34     2    28   1
    35     3    29   1
    36     4    30   1
    37     5    31   1
    38     8    32   1
    39     9    33   1
    40    10    34   1
    41    11    35   1
    42    14    36   1
    43    14    37   1
    44    15    38   1
    45    15    39   1
    46    16    40   1
    47    17    41   1
    48    17    42   1
    49    19    43   1
    50    20    44   1
    51    20    45   1
    52    22    46   1
    53    23    47   1
    54    23    48   1
    55    24    49   1
    56    25    50   1
@<TRIPOS>SUBSTRUCTURE
     1  SY9      1

