@<TRIPOS>MOLECULE
2xys_ligand_045
    50    56
SMALL
GAST_HUCK
****
This file was generated by PARSER (from files_GN.cpp)

@<TRIPOS>ATOM
      1 CAV       -33.9491    2.8847  -13.4421 C.3         1 SY9      -0.0392
      2 CAU       -32.9647    3.6835  -14.3434 C.3         1 SY9      -0.0074
      3 CAT       -32.0348    2.6309  -15.0378 C.3         1 SY9      -0.0009
      4 CAN       -32.9503    1.8943  -16.0662 C.3         1 SY9       0.0127
      5 CAK       -34.0495    1.0575  -15.3284 C.3         1 SY9       0.0377
      6 NAH       -35.0142    0.7287  -16.3281 N.pl3       1 SY9      -0.2664
      7 CAA       -36.1159    1.4953  -16.1689 C.ar        1 SY9       0.0752
      8 CAF       -37.2401    1.6493  -17.0073 C.ar        1 SY9      -0.0107
      9 CAE       -38.2599    2.5497  -16.6400 C.ar        1 SY9      -0.0448
     10 CAD       -38.1611    3.2874  -15.4427 C.ar        1 SY9      -0.0454
     11 CAC       -37.0435    3.1268  -14.6011 C.ar        1 SY9      -0.0502
     12 CAB       -36.0179    2.2364  -14.9790 C.ar        1 SY9      -0.0229
     13 CAG       -34.8257    1.8331  -14.2054 C.3         1 SY9       0.0241
     14 CAW       -35.2409    0.9142  -13.0289 C.3         1 SY9      -0.0311
     15 CAX       -33.9758    0.8389  -12.1573 C.3         1 SY9      -0.0400
     16 NAY       -33.2091    2.0948  -12.3973 N.4         1 SY9       0.2407
     17 CAS       -31.7338    1.8934  -12.6361 C.3         1 SY9      -0.0074
     18 CAR       -31.4035    1.7080  -14.0618 C.2         1 SY9      -0.0310
     19 CAQ       -30.6243    0.6711  -14.4436 C.2         1 SY9      -0.0782
     20 CAP       -30.3118    0.3097  -15.8151 C.3         1 SY9       0.0552
     21 OAO       -31.4821   -0.0682  -16.5714 O.3         1 SY9      -0.3712
     22 CAM       -32.2509    1.0110  -17.1431 C.3         1 SY9       0.0708
     23 CAL       -33.3319    0.4468  -18.1239 C.3         1 SY9       0.0233
     24 CAI       -34.6162   -0.1138  -17.4317 C.3         1 SY9       0.1466
     25 OAJ       -34.3682   -1.4329  -16.9499 O.3         1 SY9      -0.3686
     26 H1        -34.5975    3.6000  -12.9257 H           1 SY9       0.0728
     27 H2        -32.3717    4.3713  -13.7341 H           1 SY9       0.0333
     28 H3        -33.5169    4.2973  -15.0608 H           1 SY9       0.0333
     29 H4        -31.2516    3.1746  -15.5748 H           1 SY9       0.0453
     30 H5        -33.4488    2.6789  -16.6519 H           1 SY9       0.0364
     31 H6        -33.6071    0.1428  -14.9204 H           1 SY9       0.0464
     32 H7        -37.3227    1.1230  -17.8778 H           1 SY9       0.0603
     33 H8        -39.0767    2.6672  -17.2437 H           1 SY9       0.0812
     34 H9        -38.9091    3.9323  -15.1785 H           1 SY9       0.0608
     35 H10       -36.9880    3.6422  -13.7210 H           1 SY9       0.0786
     36 H11       -35.5635   -0.0759  -13.3599 H           1 SY9       0.0203
     37 H12       -36.0524    1.3650  -12.4489 H           1 SY9       0.0203
     38 H13       -33.4095   -0.0572  -12.4303 H           1 SY9       0.0805
     39 H14       -34.2403    0.7631  -11.0999 H           1 SY9       0.0805
     40 H15       -33.2748    2.6358  -11.5319 H           1 SY9       0.2039
     41 H16       -31.2210    2.7977  -12.2997 H           1 SY9       0.0964
     42 H17       -31.3557    1.0906  -11.9947 H           1 SY9       0.0964
     43 H18       -30.2409    0.0839  -13.7378 H           1 SY9       0.0266
     44 H19       -29.6582   -0.5661  -15.8063 H           1 SY9       0.0635
     45 H20       -29.7506    1.1146  -16.2981 H           1 SY9       0.0635
     46 H21       -31.5796    1.6390  -17.7395 H           1 SY9       0.0604
     47 H22       -32.8869   -0.3249  -18.7573 H           1 SY9       0.0338
     48 H23       -33.6454    1.2612  -18.7857 H           1 SY9       0.0338
     49 H24       -35.4078   -0.1969  -18.1791 H           1 SY9       0.0886
     50 H25       -35.2573   -1.8225  -16.8113 H           1 SY9       0.2123
@<TRIPOS>BOND
     1     1     2   1
     2     1    13   1
     3     1    16   1
     4     2     3   1
     5     3     4   1
     6     3    18   1
     7     4     5   1
     8     4    22   1
     9     5     6   1
    10     5    13   1
    11     6     7   1
    12     6    24   1
    13     7     8  ar
    14     7    12  ar
    15     8     9  ar
    16     9    10  ar
    17    10    11  ar
    18    11    12  ar
    19    12    13   1
    20    13    14   1
    21    14    15   1
    22    15    16   1
    23    16    17   1
    24    17    18   1
    25    18    19   2
    26    19    20   1
    27    20    21   1
    28    21    22   1
    29    22    23   1
    30    23    24   1
    31    24    25   1
    32     1    26   1
    33     2    27   1
    34     2    28   1
    35     3    29   1
    36     4    30   1
    37     5    31   1
    38     8    32   1
    39     9    33   1
    40    10    34   1
    41    11    35   1
    42    14    36   1
    43    14    37   1
    44    15    38   1
    45    15    39   1
    46    16    40   1
    47    17    41   1
    48    17    42   1
    49    19    43   1
    50    20    44   1
    51    20    45   1
    52    22    46   1
    53    23    47   1
    54    23    48   1
    55    24    49   1
    56    25    50   1
@<TRIPOS>SUBSTRUCTURE
     1  SY9      1

