@<TRIPOS>MOLECULE
2xys_ligand_004
    50    56
SMALL
GAST_HUCK
****
This file was generated by PARSER (from files_GN.cpp)

@<TRIPOS>ATOM
      1 CAV       -52.1076    9.3223  -20.5819 C.3         1 SY9      -0.0392
      2 CAU       -52.6458    8.2073  -19.6414 C.3         1 SY9      -0.0074
      3 CAT       -52.6916    6.8876  -20.4847 C.3         1 SY9      -0.0009
      4 CAN       -51.1983    6.4909  -20.7068 C.3         1 SY9       0.0127
      5 CAK       -50.4778    7.5462  -21.6124 C.3         1 SY9       0.0377
      6 NAH       -49.0841    7.2838  -21.4623 N.pl3       1 SY9      -0.2664
      7 CAA       -48.5184    8.2275  -20.6790 C.ar        1 SY9       0.0752
      8 CAF       -47.2217    8.2849  -20.1268 C.ar        1 SY9      -0.0107
      9 CAE       -46.8714    9.3697  -19.2988 C.ar        1 SY9      -0.0448
     10 CAD       -47.8039   10.3934  -19.0350 C.ar        1 SY9      -0.0454
     11 CAC       -49.0913   10.3433  -19.6036 C.ar        1 SY9      -0.0502
     12 CAB       -49.4494    9.2445  -20.4102 C.ar        1 SY9      -0.0229
     13 CAG       -50.6900    9.0423  -21.1893 C.3         1 SY9       0.0241
     14 CAW       -50.7160   10.0059  -22.4041 C.3         1 SY9      -0.0311
     15 CAX       -52.1599    9.9062  -22.9256 C.3         1 SY9      -0.0400
     16 NAY       -53.0128    9.5109  -21.7687 N.4         1 SY9       0.2407
     17 CAS       -53.9861    8.3942  -22.0520 C.3         1 SY9      -0.0074
     18 CAR       -53.4354    7.0579  -21.7578 C.2         1 SY9      -0.0310
     19 CAQ       -53.5438    6.0694  -22.6719 C.2         1 SY9      -0.0782
     20 CAP       -52.9488    4.7489  -22.5623 C.3         1 SY9       0.0552
     21 OAO       -51.5066    4.7943  -22.5220 O.3         1 SY9      -0.3712
     22 CAM       -50.9084    5.0528  -21.2343 C.3         1 SY9       0.0708
     23 CAL       -49.3596    4.8326  -21.3054 C.3         1 SY9       0.0233
     24 CAI       -48.5612    6.0215  -21.9264 C.3         1 SY9       0.1466
     25 OAJ       -48.6668    5.9887  -23.3470 O.3         1 SY9      -0.3686
     26 H1        -52.0885   10.2614  -20.0219 H           1 SY9       0.0728
     27 H2        -53.6475    8.4676  -19.2874 H           1 SY9       0.0333
     28 H3        -52.0126    8.1185  -18.7540 H           1 SY9       0.0333
     29 H4        -53.1842    6.1190  -19.8812 H           1 SY9       0.0453
     30 H5        -50.7248    6.5081  -19.7167 H           1 SY9       0.0364
     31 H6        -50.7781    7.4036  -22.6559 H           1 SY9       0.0464
     32 H7        -46.5365    7.5511  -20.3130 H           1 SY9       0.0603
     33 H8        -45.9343    9.4177  -18.8925 H           1 SY9       0.0812
     34 H9        -47.5384   11.1858  -18.4455 H           1 SY9       0.0608
     35 H10       -49.7485   11.1070  -19.4449 H           1 SY9       0.0786
     36 H11       -49.9878    9.7354  -23.1747 H           1 SY9       0.0203
     37 H12       -50.5187   11.0367  -22.0885 H           1 SY9       0.0203
     38 H13       -52.1936    9.1751  -23.7398 H           1 SY9       0.0805
     39 H14       -52.4938   10.8694  -23.3195 H           1 SY9       0.0805
     40 H15       -53.5973   10.3205  -21.5539 H           1 SY9       0.2039
     41 H16       -54.8479    8.5381  -21.3965 H           1 SY9       0.0964
     42 H17       -54.3781    8.4867  -23.0698 H           1 SY9       0.0964
     43 H18       -54.0531    6.2514  -23.5075 H           1 SY9       0.0266
     44 H19       -53.2119    4.1706  -23.4512 H           1 SY9       0.0635
     45 H20       -53.3698    4.2152  -21.7055 H           1 SY9       0.0635
     46 H21       -51.2993    4.3237  -20.5148 H           1 SY9       0.0604
     47 H22       -49.1423    3.9144  -21.8575 H           1 SY9       0.0338
     48 H23       -48.9913    4.6877  -20.2851 H           1 SY9       0.0338
     49 H24       -47.5029    5.9062  -21.6821 H           1 SY9       0.0886
     50 H25       -48.2940    6.8473  -23.6395 H           1 SY9       0.2123
@<TRIPOS>BOND
     1     1     2   1
     2     1    13   1
     3     1    16   1
     4     2     3   1
     5     3     4   1
     6     3    18   1
     7     4     5   1
     8     4    22   1
     9     5     6   1
    10     5    13   1
    11     6     7   1
    12     6    24   1
    13     7     8  ar
    14     7    12  ar
    15     8     9  ar
    16     9    10  ar
    17    10    11  ar
    18    11    12  ar
    19    12    13   1
    20    13    14   1
    21    14    15   1
    22    15    16   1
    23    16    17   1
    24    17    18   1
    25    18    19   2
    26    19    20   1
    27    20    21   1
    28    21    22   1
    29    22    23   1
    30    23    24   1
    31    24    25   1
    32     1    26   1
    33     2    27   1
    34     2    28   1
    35     3    29   1
    36     4    30   1
    37     5    31   1
    38     8    32   1
    39     9    33   1
    40    10    34   1
    41    11    35   1
    42    14    36   1
    43    14    37   1
    44    15    38   1
    45    15    39   1
    46    16    40   1
    47    17    41   1
    48    17    42   1
    49    19    43   1
    50    20    44   1
    51    20    45   1
    52    22    46   1
    53    23    47   1
    54    23    48   1
    55    24    49   1
    56    25    50   1
@<TRIPOS>SUBSTRUCTURE
     1  SY9      1

