@<TRIPOS>MOLECULE
2xys_ligand_090
    50    56
SMALL
GAST_HUCK
****
This file was generated by PARSER (from files_GN.cpp)

@<TRIPOS>ATOM
      1 CAV       -35.4560    4.1694  -15.9392 C.3         1 SY9      -0.0392
      2 CAU       -34.4285    3.8207  -17.0454 C.3         1 SY9      -0.0074
      3 CAT       -33.6081    2.5909  -16.5313 C.3         1 SY9      -0.0009
      4 CAN       -34.5736    1.3684  -16.5793 C.3         1 SY9       0.0127
      5 CAK       -35.8443    1.5770  -15.6869 C.3         1 SY9       0.0377
      6 NAH       -36.8348    0.7358  -16.2885 N.pl3       1 SY9      -0.2664
      7 CAA       -37.8308    1.4766  -16.8195 C.ar        1 SY9       0.0752
      8 CAF       -38.9281    1.0662  -17.6088 C.ar        1 SY9      -0.0107
      9 CAE       -39.8325    2.0307  -18.0904 C.ar        1 SY9      -0.0448
     10 CAD       -39.6404    3.3949  -17.7897 C.ar        1 SY9      -0.0454
     11 CAC       -38.5437    3.8011  -17.0031 C.ar        1 SY9      -0.0502
     12 CAB       -37.6364    2.8312  -16.5283 C.ar        1 SY9      -0.0229
     13 CAG       -36.4724    3.0200  -15.6397 C.3         1 SY9       0.0241
     14 CAW       -36.9413    3.4221  -14.2175 C.3         1 SY9      -0.0311
     15 CAX       -35.6504    3.9107  -13.5421 C.3         1 SY9      -0.0400
     16 NAY       -34.7893    4.4676  -14.6238 N.4         1 SY9       0.2407
     17 CAS       -33.3355    4.0955  -14.5145 C.3         1 SY9      -0.0074
     18 CAR       -33.0176    2.8293  -15.1965 C.2         1 SY9      -0.0310
     19 CAQ       -32.2174    1.9209  -14.6019 C.2         1 SY9      -0.0782
     20 CAP       -31.9302    0.6050  -15.1381 C.3         1 SY9       0.0552
     21 OAO       -33.1286   -0.1856  -15.1811 O.3         1 SY9      -0.3712
     22 CAM       -34.0008   -0.0719  -16.3279 C.3         1 SY9       0.0708
     23 CAL       -35.1458   -1.1232  -16.1151 C.3         1 SY9       0.0233
     24 CAI       -36.5683   -0.6545  -16.5785 C.3         1 SY9       0.1466
     25 OAJ       -37.5718   -1.4614  -15.9817 O.3         1 SY9      -0.3686
     26 H1        -35.9945    5.0705  -16.2487 H           1 SY9       0.0728
     27 H2        -33.7738    4.6754  -17.2184 H           1 SY9       0.0333
     28 H3        -34.9301    3.6149  -17.9904 H           1 SY9       0.0333
     29 H4        -32.7990    2.4165  -17.2457 H           1 SY9       0.0453
     30 H5        -34.9037    1.3329  -17.6282 H           1 SY9       0.0364
     31 H6        -35.6289    1.2290  -14.6708 H           1 SY9       0.0464
     32 H7        -39.0748    0.0784  -17.8280 H           1 SY9       0.0603
     33 H8        -40.6244    1.7424  -18.6690 H           1 SY9       0.0812
     34 H9        -40.2924    4.0929  -18.1544 H           1 SY9       0.0608
     35 H10       -38.4126    4.7894  -16.7845 H           1 SY9       0.0786
     36 H11       -37.3991    2.5933  -13.6687 H           1 SY9       0.0203
     37 H12       -37.6594    4.2482  -14.2582 H           1 SY9       0.0203
     38 H13       -35.1783    3.0686  -13.0257 H           1 SY9       0.0805
     39 H14       -35.8707    4.6819  -12.8029 H           1 SY9       0.0805
     40 H15       -34.8203    5.4827  -14.5173 H           1 SY9       0.2039
     41 H16       -33.0234    4.1078  -13.4649 H           1 SY9       0.0964
     42 H17       -32.7580    4.8825  -15.0020 H           1 SY9       0.0964
     43 H18       -31.8144    2.1411  -13.7190 H           1 SY9       0.0266
     44 H19       -31.2382    0.0906  -14.4672 H           1 SY9       0.0635
     45 H20       -31.4419    0.6719  -16.1140 H           1 SY9       0.0635
     46 H21       -33.4298   -0.3707  -17.2135 H           1 SY9       0.0604
     47 H22       -35.2141   -1.3563  -15.0501 H           1 SY9       0.0338
     48 H23       -34.8899   -2.0593  -16.6210 H           1 SY9       0.0338
     49 H24       -36.6355   -0.8112  -17.6539 H           1 SY9       0.0886
     50 H25       -37.4746   -1.3291  -15.0000 H           1 SY9       0.2123
@<TRIPOS>BOND
     1     1     2   1
     2     1    13   1
     3     1    16   1
     4     2     3   1
     5     3     4   1
     6     3    18   1
     7     4     5   1
     8     4    22   1
     9     5     6   1
    10     5    13   1
    11     6     7   1
    12     6    24   1
    13     7     8  ar
    14     7    12  ar
    15     8     9  ar
    16     9    10  ar
    17    10    11  ar
    18    11    12  ar
    19    12    13   1
    20    13    14   1
    21    14    15   1
    22    15    16   1
    23    16    17   1
    24    17    18   1
    25    18    19   2
    26    19    20   1
    27    20    21   1
    28    21    22   1
    29    22    23   1
    30    23    24   1
    31    24    25   1
    32     1    26   1
    33     2    27   1
    34     2    28   1
    35     3    29   1
    36     4    30   1
    37     5    31   1
    38     8    32   1
    39     9    33   1
    40    10    34   1
    41    11    35   1
    42    14    36   1
    43    14    37   1
    44    15    38   1
    45    15    39   1
    46    16    40   1
    47    17    41   1
    48    17    42   1
    49    19    43   1
    50    20    44   1
    51    20    45   1
    52    22    46   1
    53    23    47   1
    54    23    48   1
    55    24    49   1
    56    25    50   1
@<TRIPOS>SUBSTRUCTURE
     1  SY9      1

