@<TRIPOS>MOLECULE
2xys_ligand_068
    50    56
SMALL
GAST_HUCK
****
This file was generated by PARSER (from files_GN.cpp)

@<TRIPOS>ATOM
      1 CAV       -44.2701    7.7555  -18.3021 C.3         1 SY9      -0.0392
      2 CAU       -42.8465    7.2576  -18.6822 C.3         1 SY9      -0.0074
      3 CAT       -41.9014    7.5941  -17.4829 C.3         1 SY9      -0.0009
      4 CAN       -42.3241    6.6150  -16.3505 C.3         1 SY9       0.0127
      5 CAK       -43.7813    6.9165  -15.8644 C.3         1 SY9       0.0377
      6 NAH       -44.1749    5.7485  -15.1459 N.pl3       1 SY9      -0.2664
      7 CAA       -45.0384    5.0165  -15.8885 C.ar        1 SY9       0.0752
      8 CAF       -45.5330    3.7120  -15.6846 C.ar        1 SY9      -0.0107
      9 CAE       -46.4750    3.1760  -16.5897 C.ar        1 SY9      -0.0448
     10 CAD       -46.8959    3.9311  -17.7028 C.ar        1 SY9      -0.0454
     11 CAC       -46.3829    5.2231  -17.9206 C.ar        1 SY9      -0.0502
     12 CAB       -45.4288    5.7496  -17.0196 C.ar        1 SY9      -0.0229
     13 CAG       -44.8486    7.1077  -17.0016 C.3         1 SY9       0.0241
     14 CAW       -45.9368    8.1454  -16.6334 C.3         1 SY9      -0.0311
     15 CAX       -45.2950    9.4979  -16.9963 C.3         1 SY9      -0.0400
     16 NAY       -44.2757    9.2351  -18.0523 N.4         1 SY9       0.2407
     17 CAS       -42.9366    9.8816  -17.8107 C.3         1 SY9      -0.0074
     18 CAR       -41.9844    9.0175  -17.0882 C.2         1 SY9      -0.0310
     19 CAQ       -41.2643    9.5174  -16.0635 C.2         1 SY9      -0.0782
     20 CAP       -40.4145    8.7467  -15.1722 C.3         1 SY9       0.0552
     21 OAO       -41.1575    7.7465  -14.4411 O.3         1 SY9      -0.3712
     22 CAM       -41.3706    6.4942  -15.1259 C.3         1 SY9       0.0708
     23 CAL       -41.9258    5.4140  -14.1422 C.3         1 SY9       0.0233
     24 CAI       -43.4718    5.4065  -13.9319 C.3         1 SY9       0.1466
     25 OAJ       -43.8371    6.3608  -12.9307 O.3         1 SY9      -0.3686
     26 H1        -44.9403    7.5488  -19.1448 H           1 SY9       0.0728
     27 H2        -42.4962    7.7635  -19.5884 H           1 SY9       0.0333
     28 H3        -42.8642    6.1876  -18.9175 H           1 SY9       0.0333
     29 H4        -40.8802    7.3697  -17.7969 H           1 SY9       0.0453
     30 H5        -42.3057    5.6083  -16.7912 H           1 SY9       0.0364
     31 H6        -43.7746    7.7882  -15.2028 H           1 SY9       0.0464
     32 H7        -45.2250    3.1516  -14.8894 H           1 SY9       0.0603
     33 H8        -46.8551    2.2390  -16.4355 H           1 SY9       0.0812
     34 H9        -47.5918    3.5407  -18.3465 H           1 SY9       0.0608
     35 H10       -46.7058    5.7716  -18.7205 H           1 SY9       0.0786
     36 H11       -46.2256    8.1032  -15.5784 H           1 SY9       0.0203
     37 H12       -46.8382    8.0041  -17.2415 H           1 SY9       0.0203
     38 H13       -44.8662    9.9375  -16.0869 H           1 SY9       0.0805
     39 H14       -46.0498   10.1937  -17.3729 H           1 SY9       0.0805
     40 H15       -44.6334    9.6628  -18.9055 H           1 SY9       0.2039
     41 H16       -42.4981   10.0947  -18.7879 H           1 SY9       0.0964
     42 H17       -43.0710   10.8602  -17.3403 H           1 SY9       0.0964
     43 H18       -41.3300   10.4920  -15.8691 H           1 SY9       0.0266
     44 H19       -39.9817    9.4213  -14.4259 H           1 SY9       0.0635
     45 H20       -39.5741    8.3211  -15.7262 H           1 SY9       0.0635
     46 H21       -40.3972    6.1214  -15.4653 H           1 SY9       0.0604
     47 H22       -41.4355    5.5246  -13.1705 H           1 SY9       0.0338
     48 H23       -41.6605    4.4327  -14.5331 H           1 SY9       0.0338
     49 H24       -43.7782    4.4211  -13.5610 H           1 SY9       0.0886
     50 H25       -43.7325    5.8810  -12.0711 H           1 SY9       0.2123
@<TRIPOS>BOND
     1     1     2   1
     2     1    13   1
     3     1    16   1
     4     2     3   1
     5     3     4   1
     6     3    18   1
     7     4     5   1
     8     4    22   1
     9     5     6   1
    10     5    13   1
    11     6     7   1
    12     6    24   1
    13     7     8  ar
    14     7    12  ar
    15     8     9  ar
    16     9    10  ar
    17    10    11  ar
    18    11    12  ar
    19    12    13   1
    20    13    14   1
    21    14    15   1
    22    15    16   1
    23    16    17   1
    24    17    18   1
    25    18    19   2
    26    19    20   1
    27    20    21   1
    28    21    22   1
    29    22    23   1
    30    23    24   1
    31    24    25   1
    32     1    26   1
    33     2    27   1
    34     2    28   1
    35     3    29   1
    36     4    30   1
    37     5    31   1
    38     8    32   1
    39     9    33   1
    40    10    34   1
    41    11    35   1
    42    14    36   1
    43    14    37   1
    44    15    38   1
    45    15    39   1
    46    16    40   1
    47    17    41   1
    48    17    42   1
    49    19    43   1
    50    20    44   1
    51    20    45   1
    52    22    46   1
    53    23    47   1
    54    23    48   1
    55    24    49   1
    56    25    50   1
@<TRIPOS>SUBSTRUCTURE
     1  SY9      1

