@<TRIPOS>MOLECULE
2xys_ligand_021
    50    56
SMALL
GAST_HUCK
****
This file was generated by PARSER (from files_GN.cpp)

@<TRIPOS>ATOM
      1 CAV       -46.0208   -1.4118  -18.2525 C.3         1 SY9      -0.0392
      2 CAU       -45.5532   -2.8233  -17.7969 C.3         1 SY9      -0.0074
      3 CAT       -46.4245   -3.2071  -16.5528 C.3         1 SY9      -0.0009
      4 CAN       -47.8556   -3.4672  -17.1233 C.3         1 SY9       0.0127
      5 CAK       -48.4793   -2.1410  -17.6773 C.3         1 SY9       0.0377
      6 NAH       -49.5979   -2.5446  -18.4706 N.pl3       1 SY9      -0.2664
      7 CAA       -49.2890   -2.4319  -19.7818 C.ar        1 SY9       0.0752
      8 CAF       -49.9996   -2.8721  -20.9181 C.ar        1 SY9      -0.0107
      9 CAE       -49.4505   -2.6679  -22.1997 C.ar        1 SY9      -0.0448
     10 CAD       -48.2049   -2.0248  -22.3463 C.ar        1 SY9      -0.0454
     11 CAC       -47.5003   -1.5764  -21.2123 C.ar        1 SY9      -0.0502
     12 CAB       -48.0451   -1.7959  -19.9309 C.ar        1 SY9      -0.0229
     13 CAG       -47.5397   -1.3170  -18.6278 C.3         1 SY9       0.0241
     14 CAW       -47.7605    0.2120  -18.5009 C.3         1 SY9      -0.0311
     15 CAX       -46.9221    0.6021  -17.2714 C.3         1 SY9      -0.0400
     16 NAY       -45.8218   -0.3956  -17.1611 N.4         1 SY9       0.2407
     17 CAS       -45.6078   -0.9433  -15.7719 C.3         1 SY9      -0.0074
     18 CAR       -46.4022   -2.1564  -15.5053 C.2         1 SY9      -0.0310
     19 CAQ       -47.1459   -2.2401  -14.3770 C.2         1 SY9      -0.0782
     20 CAP       -48.0543   -3.3220  -14.0452 C.3         1 SY9       0.0552
     21 OAO       -49.1487   -3.4394  -14.9806 O.3         1 SY9      -0.3712
     22 CAM       -48.8796   -4.1796  -16.1901 C.3         1 SY9       0.0708
     23 CAL       -50.2068   -4.4225  -16.9830 C.3         1 SY9       0.0233
     24 CAI       -50.7045   -3.2101  -17.8264 C.3         1 SY9       0.1466
     25 OAJ       -51.3830   -2.2892  -16.9773 O.3         1 SY9      -0.3686
     26 H1        -45.4108   -1.1099  -19.1079 H           1 SY9       0.0728
     27 H2        -44.4958   -2.7984  -17.5278 H           1 SY9       0.0333
     28 H3        -45.6494   -3.5402  -18.6173 H           1 SY9       0.0333
     29 H4        -46.0310   -4.1376  -16.1385 H           1 SY9       0.0453
     30 H5        -47.7308   -4.1671  -17.9611 H           1 SY9       0.0364
     31 H6        -48.8194   -1.5146  -16.8450 H           1 SY9       0.0464
     32 H7        -50.9010   -3.3416  -20.8256 H           1 SY9       0.0603
     33 H8        -49.9592   -2.9860  -23.0276 H           1 SY9       0.0812
     34 H9        -47.8172   -1.8721  -23.2799 H           1 SY9       0.0608
     35 H10       -46.6100   -1.0847  -21.3241 H           1 SY9       0.0786
     36 H11       -48.8146    0.4783  -18.3778 H           1 SY9       0.0203
     37 H12       -47.3727    0.7369  -19.3806 H           1 SY9       0.0203
     38 H13       -47.5624    0.6065  -16.3892 H           1 SY9       0.0805
     39 H14       -46.5051    1.6043  -17.3926 H           1 SY9       0.0805
     40 H15       -44.9627    0.1050  -17.3907 H           1 SY9       0.2039
     41 H16       -44.5611   -1.2177  -15.6896 H           1 SY9       0.0964
     42 H17       -45.7572   -0.1536  -15.0296 H           1 SY9       0.0964
     43 H18       -47.0929   -1.4951  -13.7203 H           1 SY9       0.0266
     44 H19       -48.5059   -3.1120  -13.0718 H           1 SY9       0.0635
     45 H20       -47.5008   -4.2599  -13.9371 H           1 SY9       0.0635
     46 H21       -48.4840   -5.1634  -15.9152 H           1 SY9       0.0604
     47 H22       -50.9971   -4.7400  -16.2904 H           1 SY9       0.0338
     48 H23       -50.0383   -5.2573  -17.6744 H           1 SY9       0.0338
     49 H24       -51.4350   -3.5742  -18.5553 H           1 SY9       0.0886
     50 H25       -52.3135   -2.3025  -17.2754 H           1 SY9       0.2123
@<TRIPOS>BOND
     1     1     2   1
     2     1    13   1
     3     1    16   1
     4     2     3   1
     5     3     4   1
     6     3    18   1
     7     4     5   1
     8     4    22   1
     9     5     6   1
    10     5    13   1
    11     6     7   1
    12     6    24   1
    13     7     8  ar
    14     7    12  ar
    15     8     9  ar
    16     9    10  ar
    17    10    11  ar
    18    11    12  ar
    19    12    13   1
    20    13    14   1
    21    14    15   1
    22    15    16   1
    23    16    17   1
    24    17    18   1
    25    18    19   2
    26    19    20   1
    27    20    21   1
    28    21    22   1
    29    22    23   1
    30    23    24   1
    31    24    25   1
    32     1    26   1
    33     2    27   1
    34     2    28   1
    35     3    29   1
    36     4    30   1
    37     5    31   1
    38     8    32   1
    39     9    33   1
    40    10    34   1
    41    11    35   1
    42    14    36   1
    43    14    37   1
    44    15    38   1
    45    15    39   1
    46    16    40   1
    47    17    41   1
    48    17    42   1
    49    19    43   1
    50    20    44   1
    51    20    45   1
    52    22    46   1
    53    23    47   1
    54    23    48   1
    55    24    49   1
    56    25    50   1
@<TRIPOS>SUBSTRUCTURE
     1  SY9      1

