@<TRIPOS>MOLECULE
2xys_ligand_048
    50    56
SMALL
GAST_HUCK
****
This file was generated by PARSER (from files_GN.cpp)

@<TRIPOS>ATOM
      1 CAV       -51.0816    8.2470  -22.4611 C.3         1 SY9      -0.0392
      2 CAU       -52.1653    8.0146  -23.5572 C.3         1 SY9      -0.0074
      3 CAT       -52.2504    6.4669  -23.7970 C.3         1 SY9      -0.0009
      4 CAN       -52.9173    5.8937  -22.5099 C.3         1 SY9       0.0127
      5 CAK       -51.9728    6.0853  -21.2744 C.3         1 SY9       0.0377
      6 NAH       -52.7976    5.8656  -20.1327 N.pl3       1 SY9      -0.2664
      7 CAA       -53.0798    7.0405  -19.5318 C.ar        1 SY9       0.0752
      8 CAF       -53.9882    7.3344  -18.4906 C.ar        1 SY9      -0.0107
      9 CAE       -54.1393    8.6638  -18.0586 C.ar        1 SY9      -0.0448
     10 CAD       -53.3828    9.6979  -18.6498 C.ar        1 SY9      -0.0454
     11 CAC       -52.4660    9.4014  -19.6799 C.ar        1 SY9      -0.0502
     12 CAB       -52.3309    8.0719  -20.1221 C.ar        1 SY9      -0.0229
     13 CAG       -51.3694    7.5246  -21.1029 C.3         1 SY9       0.0241
     14 CAW       -49.9483    7.4954  -20.4855 C.3         1 SY9      -0.0311
     15 CAX       -49.0392    7.2070  -21.6889 C.3         1 SY9      -0.0400
     16 NAY       -49.7454    7.7132  -22.9017 N.4         1 SY9       0.2407
     17 CAS       -49.7580    6.7646  -24.0715 C.3         1 SY9      -0.0074
     18 CAR       -50.9237    5.8616  -24.0702 C.2         1 SY9      -0.0310
     19 CAQ       -50.7429    4.5362  -24.2256 C.2         1 SY9      -0.0782
     20 CAP       -51.7806    3.5211  -24.1337 C.3         1 SY9       0.0552
     21 OAO       -52.3837    3.4656  -22.8237 O.3         1 SY9      -0.3712
     22 CAM       -53.4314    4.4224  -22.5603 C.3         1 SY9       0.0708
     23 CAL       -54.1400    4.0802  -21.2065 C.3         1 SY9       0.0233
     24 CAI       -53.3597    4.5518  -19.9378 C.3         1 SY9       0.1466
     25 OAJ       -52.2889    3.6492  -19.6689 O.3         1 SY9      -0.3686
     26 H1        -50.9913    9.3251  -22.2943 H           1 SY9       0.0728
     27 H2        -51.8785    8.5217  -24.4819 H           1 SY9       0.0333
     28 H3        -53.1236    8.4421  -23.2539 H           1 SY9       0.0333
     29 H4        -52.9078    6.2855  -24.6557 H           1 SY9       0.0453
     30 H5        -53.8293    6.4838  -22.3464 H           1 SY9       0.0364
     31 H6        -51.1685    5.3418  -21.3058 H           1 SY9       0.0464
     32 H7        -54.5345    6.5937  -18.0491 H           1 SY9       0.0603
     33 H8        -54.7987    8.8876  -17.3103 H           1 SY9       0.0812
     34 H9        -53.4922   10.6564  -18.3192 H           1 SY9       0.0608
     35 H10       -51.9020   10.1470  -20.0907 H           1 SY9       0.0786
     36 H11       -49.8287    6.7438  -19.6990 H           1 SY9       0.0203
     37 H12       -49.6817    8.4669  -20.0590 H           1 SY9       0.0203
     38 H13       -48.8409    6.1334  -21.7432 H           1 SY9       0.0805
     39 H14       -48.0842    7.7261  -21.5782 H           1 SY9       0.0805
     40 H15       -49.1912    8.5043  -23.2268 H           1 SY9       0.2039
     41 H16       -49.8002    7.3507  -24.9952 H           1 SY9       0.0964
     42 H17       -48.8056    6.2381  -24.1025 H           1 SY9       0.0964
     43 H18       -49.8204    4.1971  -24.3959 H           1 SY9       0.0266
     44 H19       -51.3341    2.5390  -24.3059 H           1 SY9       0.0635
     45 H20       -52.5209    3.6706  -24.9228 H           1 SY9       0.0635
     46 H21       -54.1896    4.3333  -23.3471 H           1 SY9       0.0604
     47 H22       -54.3298    3.0041  -21.1485 H           1 SY9       0.0338
     48 H23       -55.1136    4.5774  -21.1969 H           1 SY9       0.0338
     49 H24       -54.0245    4.5200  -19.0752 H           1 SY9       0.0886
     50 H25       -51.5055    4.2189  -19.4966 H           1 SY9       0.2123
@<TRIPOS>BOND
     1     1     2   1
     2     1    13   1
     3     1    16   1
     4     2     3   1
     5     3     4   1
     6     3    18   1
     7     4     5   1
     8     4    22   1
     9     5     6   1
    10     5    13   1
    11     6     7   1
    12     6    24   1
    13     7     8  ar
    14     7    12  ar
    15     8     9  ar
    16     9    10  ar
    17    10    11  ar
    18    11    12  ar
    19    12    13   1
    20    13    14   1
    21    14    15   1
    22    15    16   1
    23    16    17   1
    24    17    18   1
    25    18    19   2
    26    19    20   1
    27    20    21   1
    28    21    22   1
    29    22    23   1
    30    23    24   1
    31    24    25   1
    32     1    26   1
    33     2    27   1
    34     2    28   1
    35     3    29   1
    36     4    30   1
    37     5    31   1
    38     8    32   1
    39     9    33   1
    40    10    34   1
    41    11    35   1
    42    14    36   1
    43    14    37   1
    44    15    38   1
    45    15    39   1
    46    16    40   1
    47    17    41   1
    48    17    42   1
    49    19    43   1
    50    20    44   1
    51    20    45   1
    52    22    46   1
    53    23    47   1
    54    23    48   1
    55    24    49   1
    56    25    50   1
@<TRIPOS>SUBSTRUCTURE
     1  SY9      1

