@<TRIPOS>MOLECULE
2xys_ligand_028
    50    56
SMALL
GAST_HUCK
****
This file was generated by PARSER (from files_GN.cpp)

@<TRIPOS>ATOM
      1 CAV       -35.3320    3.7438  -15.0847 C.3         1 SY9      -0.0392
      2 CAU       -34.1050    4.0650  -15.9792 C.3         1 SY9      -0.0074
      3 CAT       -32.8723    3.3546  -15.3271 C.3         1 SY9      -0.0009
      4 CAN       -33.0712    1.8259  -15.5715 C.3         1 SY9       0.0127
      5 CAK       -34.4002    1.2830  -14.9394 C.3         1 SY9       0.0377
      6 NAH       -34.7264    0.1243  -15.7175 N.pl3       1 SY9      -0.2664
      7 CAA       -35.8571    0.3353  -16.4279 C.ar        1 SY9       0.0752
      8 CAF       -36.4527   -0.4634  -17.4231 C.ar        1 SY9      -0.0107
      9 CAE       -37.6318   -0.0274  -18.0548 C.ar        1 SY9      -0.0448
     10 CAD       -38.2075    1.2098  -17.7045 C.ar        1 SY9      -0.0454
     11 CAC       -37.6002    2.0220  -16.7270 C.ar        1 SY9      -0.0502
     12 CAB       -36.4183    1.5760  -16.0936 C.ar        1 SY9      -0.0229
     13 CAG       -35.6675    2.2196  -14.9967 C.3         1 SY9       0.0241
     14 CAW       -36.4898    2.1880  -13.6846 C.3         1 SY9      -0.0311
     15 CAX       -35.7371    3.1726  -12.7805 C.3         1 SY9      -0.0400
     16 NAY       -35.1241    4.1931  -13.6668 N.4         1 SY9       0.2407
     17 CAS       -33.7216    4.5795  -13.2850 C.3         1 SY9      -0.0074
     18 CAR       -32.7076    3.7077  -13.9010 C.2         1 SY9      -0.0310
     19 CAQ       -31.6636    3.2534  -13.1730 C.2         1 SY9      -0.0782
     20 CAP       -30.6723    2.3149  -13.6612 C.3         1 SY9       0.0552
     21 OAO       -31.2851    1.0462  -13.9400 O.3         1 SY9      -0.3712
     22 CAM       -31.9038    0.8326  -15.2311 C.3         1 SY9       0.0708
     23 CAL       -32.3874   -0.6670  -15.2514 C.3         1 SY9       0.0233
     24 CAI       -33.7583   -0.9239  -15.9610 C.3         1 SY9       0.1466
     25 OAJ       -34.2746   -2.1834  -15.5419 O.3         1 SY9      -0.3686
     26 H1        -36.1934    4.2896  -15.4854 H           1 SY9       0.0728
     27 H2        -33.9482    5.1476  -16.0158 H           1 SY9       0.0333
     28 H3        -34.2823    3.7360  -17.0084 H           1 SY9       0.0333
     29 H4        -31.9819    3.6895  -15.8644 H           1 SY9       0.0453
     30 H5        -33.1667    1.7413  -16.6640 H           1 SY9       0.0364
     31 H6        -34.2048    0.9846  -13.9038 H           1 SY9       0.0464
     32 H7        -36.0334   -1.3499  -17.7014 H           1 SY9       0.0603
     33 H8        -38.0751   -0.6079  -18.7709 H           1 SY9       0.0812
     34 H9        -39.0654    1.5239  -18.1634 H           1 SY9       0.0608
     35 H10       -38.0234    2.9169  -16.4690 H           1 SY9       0.0786
     36 H11       -36.5454    1.1904  -13.2387 H           1 SY9       0.0203
     37 H12       -37.5105    2.5505  -13.8491 H           1 SY9       0.0203
     38 H13       -34.9919    2.6252  -12.2041 H           1 SY9       0.0805
     39 H14       -36.4230    3.6534  -12.0841 H           1 SY9       0.0805
     40 H15       -35.6878    5.0383  -13.5586 H           1 SY9       0.2039
     41 H16       -33.6324    4.6380  -12.1950 H           1 SY9       0.0964
     42 H17       -33.5404    5.5924  -13.6521 H           1 SY9       0.0964
     43 H18       -31.5710    3.5534  -12.2289 H           1 SY9       0.0266
     44 H19       -29.9313    2.1406  -12.8777 H           1 SY9       0.0635
     45 H20       -30.1369    2.7150  -14.5261 H           1 SY9       0.0635
     46 H21       -31.1256    0.9495  -15.9957 H           1 SY9       0.0604
     47 H22       -32.4965   -1.0111  -14.2163 H           1 SY9       0.0338
     48 H23       -31.6155   -1.2934  -15.7093 H           1 SY9       0.0338
     49 H24       -33.5601   -0.9744  -17.0366 H           1 SY9       0.0886
     50 H25       -35.1086   -2.3150  -16.0374 H           1 SY9       0.2123
@<TRIPOS>BOND
     1     1     2   1
     2     1    13   1
     3     1    16   1
     4     2     3   1
     5     3     4   1
     6     3    18   1
     7     4     5   1
     8     4    22   1
     9     5     6   1
    10     5    13   1
    11     6     7   1
    12     6    24   1
    13     7     8  ar
    14     7    12  ar
    15     8     9  ar
    16     9    10  ar
    17    10    11  ar
    18    11    12  ar
    19    12    13   1
    20    13    14   1
    21    14    15   1
    22    15    16   1
    23    16    17   1
    24    17    18   1
    25    18    19   2
    26    19    20   1
    27    20    21   1
    28    21    22   1
    29    22    23   1
    30    23    24   1
    31    24    25   1
    32     1    26   1
    33     2    27   1
    34     2    28   1
    35     3    29   1
    36     4    30   1
    37     5    31   1
    38     8    32   1
    39     9    33   1
    40    10    34   1
    41    11    35   1
    42    14    36   1
    43    14    37   1
    44    15    38   1
    45    15    39   1
    46    16    40   1
    47    17    41   1
    48    17    42   1
    49    19    43   1
    50    20    44   1
    51    20    45   1
    52    22    46   1
    53    23    47   1
    54    23    48   1
    55    24    49   1
    56    25    50   1
@<TRIPOS>SUBSTRUCTURE
     1  SY9      1

