@<TRIPOS>MOLECULE
2xys_ligand_060
    50    56
SMALL
GAST_HUCK
****
This file was generated by PARSER (from files_GN.cpp)

@<TRIPOS>ATOM
      1 CAV       -50.8757    0.9526  -22.8956 C.3         1 SY9      -0.0392
      2 CAU       -49.9002    1.8102  -23.7464 C.3         1 SY9      -0.0074
      3 CAT       -49.9508    3.2623  -23.1683 C.3         1 SY9      -0.0009
      4 CAN       -49.2312    3.2054  -21.7832 C.3         1 SY9       0.0127
      5 CAK       -49.9136    2.2043  -20.7859 C.3         1 SY9       0.0377
      6 NAH       -48.8643    1.8243  -19.8822 N.pl3       1 SY9      -0.2664
      7 CAA       -48.5622    0.5166  -20.0392 C.ar        1 SY9       0.0752
      8 CAF       -47.5051   -0.2281  -19.4742 C.ar        1 SY9      -0.0107
      9 CAE       -47.3465   -1.5830  -19.8256 C.ar        1 SY9      -0.0448
     10 CAD       -48.2361   -2.1888  -20.7354 C.ar        1 SY9      -0.0454
     11 CAC       -49.2879   -1.4423  -21.3015 C.ar        1 SY9      -0.0502
     12 CAB       -49.4360   -0.0821  -20.9569 C.ar        1 SY9      -0.0229
     13 CAG       -50.4868    0.8638  -21.3832 C.3         1 SY9       0.0241
     14 CAW       -51.8529    0.4647  -20.7680 C.3         1 SY9      -0.0311
     15 CAX       -52.8615    1.3084  -21.5619 C.3         1 SY9      -0.0400
     16 NAY       -52.2762    1.5014  -22.9182 N.4         1 SY9       0.2407
     17 CAS       -52.4365    2.8915  -23.4712 C.3         1 SY9      -0.0074
     18 CAR       -51.3312    3.7886  -23.0917 C.2         1 SY9      -0.0310
     19 CAQ       -51.5874    5.0482  -22.6828 C.2         1 SY9      -0.0782
     20 CAP       -50.5836    5.9705  -22.1894 C.3         1 SY9       0.0552
     21 OAO       -50.0153    5.4791  -20.9651 O.3         1 SY9      -0.3712
     22 CAM       -48.9138    4.5452  -21.0279 C.3         1 SY9       0.0708
     23 CAL       -48.4716    4.2818  -19.5391 C.3         1 SY9       0.0233
     24 CAI       -48.0276    2.8145  -19.2311 C.3         1 SY9       0.1466
     25 OAJ       -47.9807    2.5871  -17.8239 O.3         1 SY9      -0.3686
     26 H1        -50.9079   -0.0522  -23.3281 H           1 SY9       0.0728
     27 H2        -50.2169    1.8073  -24.7932 H           1 SY9       0.0333
     28 H3        -48.8925    1.3848  -23.7177 H           1 SY9       0.0333
     29 H4        -49.3688    3.8980  -23.8439 H           1 SY9       0.0453
     30 H5        -48.2345    2.8090  -22.0235 H           1 SY9       0.0364
     31 H6        -50.6991    2.7312  -20.2336 H           1 SY9       0.0464
     32 H7        -46.8488    0.2069  -18.8235 H           1 SY9       0.0603
     33 H8        -46.5819   -2.1273  -19.4208 H           1 SY9       0.0812
     34 H9        -48.1188   -3.1738  -20.9838 H           1 SY9       0.0608
     35 H10       -49.9363   -1.8892  -21.9521 H           1 SY9       0.0786
     36 H11       -51.9129    0.6669  -19.6958 H           1 SY9       0.0203
     37 H12       -52.0650   -0.5976  -20.9313 H           1 SY9       0.0203
     38 H13       -53.0218    2.2563  -21.0373 H           1 SY9       0.0805
     39 H14       -53.8218    0.7929  -21.6387 H           1 SY9       0.0805
     40 H15       -52.8100    0.8929  -23.5437 H           1 SY9       0.2039
     41 H16       -53.4213    3.2880  -23.2032 H           1 SY9       0.0964
     42 H17       -52.4348    2.8125  -24.5612 H           1 SY9       0.0964
     43 H18       -52.5288    5.3710  -22.6829 H           1 SY9       0.0266
     44 H19       -51.0628    6.9235  -21.9532 H           1 SY9       0.0635
     45 H20       -49.8226    6.1727  -22.9479 H           1 SY9       0.0635
     46 H21       -48.0835    5.0394  -21.5453 H           1 SY9       0.0604
     47 H22       -49.3172    4.4963  -18.8793 H           1 SY9       0.0338
     48 H23       -47.6698    4.9718  -19.2626 H           1 SY9       0.0338
     49 H24       -47.0077    2.7010  -19.6062 H           1 SY9       0.0886
     50 H25       -48.8283    2.9237  -17.4670 H           1 SY9       0.2123
@<TRIPOS>BOND
     1     1     2   1
     2     1    13   1
     3     1    16   1
     4     2     3   1
     5     3     4   1
     6     3    18   1
     7     4     5   1
     8     4    22   1
     9     5     6   1
    10     5    13   1
    11     6     7   1
    12     6    24   1
    13     7     8  ar
    14     7    12  ar
    15     8     9  ar
    16     9    10  ar
    17    10    11  ar
    18    11    12  ar
    19    12    13   1
    20    13    14   1
    21    14    15   1
    22    15    16   1
    23    16    17   1
    24    17    18   1
    25    18    19   2
    26    19    20   1
    27    20    21   1
    28    21    22   1
    29    22    23   1
    30    23    24   1
    31    24    25   1
    32     1    26   1
    33     2    27   1
    34     2    28   1
    35     3    29   1
    36     4    30   1
    37     5    31   1
    38     8    32   1
    39     9    33   1
    40    10    34   1
    41    11    35   1
    42    14    36   1
    43    14    37   1
    44    15    38   1
    45    15    39   1
    46    16    40   1
    47    17    41   1
    48    17    42   1
    49    19    43   1
    50    20    44   1
    51    20    45   1
    52    22    46   1
    53    23    47   1
    54    23    48   1
    55    24    49   1
    56    25    50   1
@<TRIPOS>SUBSTRUCTURE
     1  SY9      1

