@<TRIPOS>MOLECULE
2xys_ligand_003
    50    56
SMALL
GAST_HUCK
****
This file was generated by PARSER (from files_GN.cpp)

@<TRIPOS>ATOM
      1 CAV       -30.9052    3.2869  -15.1392 C.3         1 SY9      -0.0392
      2 CAU       -30.8297    2.0153  -16.0269 C.3         1 SY9      -0.0074
      3 CAT       -30.4612    0.8261  -15.0837 C.3         1 SY9      -0.0009
      4 CAN       -31.7275    0.5572  -14.2094 C.3         1 SY9       0.0127
      5 CAK       -32.1428    1.8036  -13.3532 C.3         1 SY9       0.0377
      6 NAH       -33.5452    1.6254  -13.1056 N.pl3       1 SY9      -0.2664
      7 CAA       -34.2640    2.5792  -13.7355 C.ar        1 SY9       0.0752
      8 CAF       -35.6653    2.6999  -13.8641 C.ar        1 SY9      -0.0107
      9 CAE       -36.2025    3.7624  -14.6160 C.ar        1 SY9      -0.0448
     10 CAD       -35.3456    4.6948  -15.2351 C.ar        1 SY9      -0.0454
     11 CAC       -33.9489    4.5725  -15.1008 C.ar        1 SY9      -0.0502
     12 CAB       -33.4124    3.4997  -14.3599 C.ar        1 SY9      -0.0229
     13 CAG       -32.0001    3.2211  -14.0259 C.3         1 SY9       0.0241
     14 CAW       -31.4661    4.3000  -13.0519 C.3         1 SY9      -0.0311
     15 CAX       -29.9445    4.0860  -13.0708 C.3         1 SY9      -0.0400
     16 NAY       -29.6115    3.5479  -14.4196 N.4         1 SY9       0.2407
     17 CAS       -28.6139    2.4208  -14.4119 C.3         1 SY9      -0.0074
     18 CAR       -29.2454    1.0952  -14.2855 C.2         1 SY9      -0.0310
     19 CAQ       -28.7190    0.1668  -13.4593 C.2         1 SY9      -0.0782
     20 CAP       -29.3206   -1.1240  -13.1886 C.3         1 SY9       0.0552
     21 OAO       -30.5806   -0.9537  -12.5201 O.3         1 SY9      -0.3712
     22 CAM       -31.7706   -0.7267  -13.3092 C.3         1 SY9       0.0708
     23 CAL       -32.9755   -0.6871  -12.2968 C.3         1 SY9       0.0233
     24 CAI       -34.0796    0.3781  -12.6069 C.3         1 SY9       0.1466
     25 OAJ       -34.8727    0.6281  -11.4485 O.3         1 SY9      -0.3686
     26 H1        -31.0959    4.1423  -15.7886 H           1 SY9       0.0728
     27 H2        -30.0659    2.1441  -16.7993 H           1 SY9       0.0333
     28 H3        -31.7793    1.8509  -16.5442 H           1 SY9       0.0333
     29 H4        -30.2795   -0.0449  -15.7208 H           1 SY9       0.0453
     30 H5        -32.5265    0.3789  -14.9426 H           1 SY9       0.0364
     31 H6        -31.5979    1.7818  -12.4022 H           1 SY9       0.0464
     32 H7        -36.2916    2.0254  -13.4198 H           1 SY9       0.0603
     33 H8        -37.2153    3.8573  -14.7121 H           1 SY9       0.0812
     34 H9        -35.7402    5.4652  -15.7782 H           1 SY9       0.0608
     35 H10       -33.3354    5.2661  -15.5294 H           1 SY9       0.0786
     36 H11       -31.8803    4.2007  -12.0458 H           1 SY9       0.0203
     37 H12       -31.6897    5.3060  -13.4210 H           1 SY9       0.0203
     38 H13       -29.6722    3.3960  -12.2653 H           1 SY9       0.0805
     39 H14       -29.4192    5.0296  -12.9056 H           1 SY9       0.0805
     40 H15       -29.1571    4.3137  -14.9235 H           1 SY9       0.2039
     41 H16       -27.8468    2.6043  -13.6522 H           1 SY9       0.0964
     42 H17       -28.0910    2.4418  -15.3712 H           1 SY9       0.0964
     43 H18       -27.8781    0.3797  -12.9723 H           1 SY9       0.0266
     44 H19       -28.6766   -1.6825  -12.5066 H           1 SY9       0.0635
     45 H20       -29.4127   -1.7189  -14.1010 H           1 SY9       0.0635
     46 H21       -31.9057   -1.5966  -13.9630 H           1 SY9       0.0604
     47 H22       -32.5941   -0.4690  -11.2933 H           1 SY9       0.0338
     48 H23       -33.4422   -1.6742  -12.2495 H           1 SY9       0.0338
     49 H24       -34.7279   -0.0433  -13.3817 H           1 SY9       0.0886
     50 H25       -35.4195   -0.1788  -11.3537 H           1 SY9       0.2123
@<TRIPOS>BOND
     1     1     2   1
     2     1    13   1
     3     1    16   1
     4     2     3   1
     5     3     4   1
     6     3    18   1
     7     4     5   1
     8     4    22   1
     9     5     6   1
    10     5    13   1
    11     6     7   1
    12     6    24   1
    13     7     8  ar
    14     7    12  ar
    15     8     9  ar
    16     9    10  ar
    17    10    11  ar
    18    11    12  ar
    19    12    13   1
    20    13    14   1
    21    14    15   1
    22    15    16   1
    23    16    17   1
    24    17    18   1
    25    18    19   2
    26    19    20   1
    27    20    21   1
    28    21    22   1
    29    22    23   1
    30    23    24   1
    31    24    25   1
    32     1    26   1
    33     2    27   1
    34     2    28   1
    35     3    29   1
    36     4    30   1
    37     5    31   1
    38     8    32   1
    39     9    33   1
    40    10    34   1
    41    11    35   1
    42    14    36   1
    43    14    37   1
    44    15    38   1
    45    15    39   1
    46    16    40   1
    47    17    41   1
    48    17    42   1
    49    19    43   1
    50    20    44   1
    51    20    45   1
    52    22    46   1
    53    23    47   1
    54    23    48   1
    55    24    49   1
    56    25    50   1
@<TRIPOS>SUBSTRUCTURE
     1  SY9      1

