@<TRIPOS>MOLECULE
2xys_ligand_015
    50    56
SMALL
GAST_HUCK
****
This file was generated by PARSER (from files_GN.cpp)

@<TRIPOS>ATOM
      1 CAV       -40.3295    5.0704  -15.1097 C.3         1 SY9      -0.0392
      2 CAU       -40.7160    6.1552  -14.0635 C.3         1 SY9      -0.0074
      3 CAT       -40.9437    7.4857  -14.8587 C.3         1 SY9      -0.0009
      4 CAN       -42.2677    7.2564  -15.6534 C.3         1 SY9       0.0127
      5 CAK       -42.0776    6.1441  -16.7365 C.3         1 SY9       0.0377
      6 NAH       -43.3943    5.7814  -17.1420 N.pl3       1 SY9      -0.2664
      7 CAA       -43.7285    4.5881  -16.6036 C.ar        1 SY9       0.0752
      8 CAF       -44.9675    3.9144  -16.5917 C.ar        1 SY9      -0.0107
      9 CAE       -45.0729    2.6713  -15.9349 C.ar        1 SY9      -0.0448
     10 CAD       -43.9476    2.1045  -15.3025 C.ar        1 SY9      -0.0454
     11 CAC       -42.7060    2.7689  -15.3286 C.ar        1 SY9      -0.0502
     12 CAB       -42.6084    4.0183  -15.9753 C.ar        1 SY9      -0.0229
     13 CAG       -41.3983    4.8267  -16.2268 C.3         1 SY9       0.0241
     14 CAW       -40.5158    4.1543  -17.3103 C.3         1 SY9      -0.0311
     15 CAX       -39.1864    4.9228  -17.2250 C.3         1 SY9      -0.0400
     16 NAY       -39.0705    5.4472  -15.8358 N.4         1 SY9       0.2407
     17 CAS       -38.6501    6.8914  -15.7428 C.3         1 SY9      -0.0074
     18 CAR       -39.7932    7.8215  -15.7347 C.2         1 SY9      -0.0310
     19 CAQ       -39.8030    8.8807  -16.5764 C.2         1 SY9      -0.0782
     20 CAP       -40.9078    9.8054  -16.7509 C.3         1 SY9       0.0552
     21 OAO       -42.0954    9.1665  -17.2682 O.3         1 SY9      -0.3712
     22 CAM       -42.9394    8.5020  -16.3017 C.3         1 SY9       0.0708
     23 CAL       -44.2954    8.0785  -16.9606 C.3         1 SY9       0.0233
     24 CAI       -44.2136    6.7704  -17.8072 C.3         1 SY9       0.1466
     25 OAJ       -43.6585    7.0943  -19.0851 O.3         1 SY9      -0.3686
     26 H1        -40.1351    4.1311  -14.5876 H           1 SY9       0.0728
     27 H2        -39.9069    6.2758  -13.3387 H           1 SY9       0.0333
     28 H3        -41.6006    5.8475  -13.4983 H           1 SY9       0.0333
     29 H4        -41.0956    8.2944  -14.1374 H           1 SY9       0.0453
     30 H5        -43.0103    6.9070  -14.9222 H           1 SY9       0.0364
     31 H6        -41.5180    6.5508  -17.5835 H           1 SY9       0.0464
     32 H7        -45.7887    4.3142  -17.0493 H           1 SY9       0.0603
     33 H8        -45.9696    2.1801  -15.9176 H           1 SY9       0.0812
     34 H9        -44.0292    1.2007  -14.8324 H           1 SY9       0.0608
     35 H10       -41.8862    2.3444  -14.8917 H           1 SY9       0.0786
     36 H11       -40.9475    4.2126  -18.3142 H           1 SY9       0.0203
     37 H12       -40.3376    3.1005  -17.0695 H           1 SY9       0.0203
     38 H13       -39.1890    5.7203  -17.9752 H           1 SY9       0.0805
     39 H14       -38.3472    4.2566  -17.4315 H           1 SY9       0.0805
     40 H15       -38.3174    4.9132  -15.3948 H           1 SY9       0.2039
     41 H16       -38.1239    7.0187  -14.7941 H           1 SY9       0.0964
     42 H17       -37.9129    7.1124  -16.5211 H           1 SY9       0.0964
     43 H18       -39.0018    9.0404  -17.1442 H           1 SY9       0.0266
     44 H19       -40.6193   10.5599  -17.4874 H           1 SY9       0.0635
     45 H20       -41.1007   10.3362  -15.8148 H           1 SY9       0.0635
     46 H21       -43.1898    9.2076  -15.5061 H           1 SY9       0.0604
     47 H22       -44.6744    8.8972  -17.5794 H           1 SY9       0.0338
     48 H23       -45.0269    7.9175  -16.1621 H           1 SY9       0.0338
     49 H24       -45.2259    6.3964  -17.9742 H           1 SY9       0.0886
     50 H25       -42.9798    6.4147  -19.2883 H           1 SY9       0.2123
@<TRIPOS>BOND
     1     1     2   1
     2     1    13   1
     3     1    16   1
     4     2     3   1
     5     3     4   1
     6     3    18   1
     7     4     5   1
     8     4    22   1
     9     5     6   1
    10     5    13   1
    11     6     7   1
    12     6    24   1
    13     7     8  ar
    14     7    12  ar
    15     8     9  ar
    16     9    10  ar
    17    10    11  ar
    18    11    12  ar
    19    12    13   1
    20    13    14   1
    21    14    15   1
    22    15    16   1
    23    16    17   1
    24    17    18   1
    25    18    19   2
    26    19    20   1
    27    20    21   1
    28    21    22   1
    29    22    23   1
    30    23    24   1
    31    24    25   1
    32     1    26   1
    33     2    27   1
    34     2    28   1
    35     3    29   1
    36     4    30   1
    37     5    31   1
    38     8    32   1
    39     9    33   1
    40    10    34   1
    41    11    35   1
    42    14    36   1
    43    14    37   1
    44    15    38   1
    45    15    39   1
    46    16    40   1
    47    17    41   1
    48    17    42   1
    49    19    43   1
    50    20    44   1
    51    20    45   1
    52    22    46   1
    53    23    47   1
    54    23    48   1
    55    24    49   1
    56    25    50   1
@<TRIPOS>SUBSTRUCTURE
     1  SY9      1

