@<TRIPOS>MOLECULE
2xys_ligand_075
    50    56
SMALL
GAST_HUCK
****
This file was generated by PARSER (from files_GN.cpp)

@<TRIPOS>ATOM
      1 CAV       -36.2865    3.9870  -14.2799 C.3         1 SY9      -0.0392
      2 CAU       -37.1024    2.7312  -13.8799 C.3         1 SY9      -0.0074
      3 CAT       -37.6698    2.1272  -15.2043 C.3         1 SY9      -0.0009
      4 CAN       -36.4518    1.4945  -15.9526 C.3         1 SY9       0.0127
      5 CAK       -35.3394    2.5483  -16.2822 C.3         1 SY9       0.0377
      6 NAH       -34.1285    1.7827  -16.3880 N.pl3       1 SY9      -0.2664
      7 CAA       -33.2855    2.1124  -15.3821 C.ar        1 SY9       0.0752
      8 CAF       -32.0602    1.5175  -15.0149 C.ar        1 SY9      -0.0107
      9 CAE       -31.3639    2.0000  -13.8890 C.ar        1 SY9      -0.0448
     10 CAD       -31.8905    3.0670  -13.1317 C.ar        1 SY9      -0.0454
     11 CAC       -33.1148    3.6568  -13.4983 C.ar        1 SY9      -0.0502
     12 CAB       -33.8126    3.1649  -14.6202 C.ar        1 SY9      -0.0229
     13 CAG       -35.0677    3.6709  -15.2104 C.3         1 SY9       0.0241
     14 CAW       -34.8397    5.0618  -15.8534 C.3         1 SY9      -0.0311
     15 CAX       -36.2690    5.5674  -16.0951 C.3         1 SY9      -0.0400
     16 NAY       -37.1258    4.9826  -15.0302 N.4         1 SY9       0.2407
     17 CAS       -38.4634    4.5018  -15.5254 C.3         1 SY9      -0.0074
     18 CAR       -38.4173    3.1112  -16.0105 C.2         1 SY9      -0.0310
     19 CAQ       -39.0477    2.7651  -17.1497 C.2         1 SY9      -0.0782
     20 CAP       -38.9829    1.4502  -17.7630 C.3         1 SY9       0.0552
     21 OAO       -37.6413    1.1453  -18.1726 O.3         1 SY9      -0.3712
     22 CAM       -36.7057    0.5995  -17.2178 C.3         1 SY9       0.0708
     23 CAL       -35.3760    0.3229  -18.0125 C.3         1 SY9       0.0233
     24 CAI       -34.0562    0.5919  -17.2176 C.3         1 SY9       0.1466
     25 OAJ       -32.9749    0.6590  -18.1484 O.3         1 SY9      -0.3686
     26 H1        -35.9392    4.4736  -13.3626 H           1 SY9       0.0728
     27 H2        -37.9202    3.0101  -13.2127 H           1 SY9       0.0333
     28 H3        -36.4742    2.0259  -13.3313 H           1 SY9       0.0333
     29 H4        -38.3654    1.3396  -14.9115 H           1 SY9       0.0453
     30 H5        -36.0310    0.7861  -15.2239 H           1 SY9       0.0364
     31 H6        -35.5622    3.0056  -17.2507 H           1 SY9       0.0464
     32 H7        -31.6739    0.7386  -15.5509 H           1 SY9       0.0603
     33 H8        -30.4742    1.5751  -13.6191 H           1 SY9       0.0812
     34 H9        -31.3786    3.4154  -12.3183 H           1 SY9       0.0608
     35 H10       -33.4846    4.4387  -12.9536 H           1 SY9       0.0786
     36 H11       -34.2640    5.0127  -16.7835 H           1 SY9       0.0203
     37 H12       -34.3280    5.7416  -15.1624 H           1 SY9       0.0203
     38 H13       -36.5880    5.2597  -17.0904 H           1 SY9       0.0805
     39 H14       -36.3146    6.6527  -16.0580 H           1 SY9       0.0805
     40 H15       -37.3267    5.7430  -14.3745 H           1 SY9       0.2039
     41 H16       -38.8636    5.1994  -16.2670 H           1 SY9       0.0964
     42 H17       -39.1578    4.5316  -14.6838 H           1 SY9       0.0964
     43 H18       -39.5731    3.4561  -17.6370 H           1 SY9       0.0266
     44 H19       -39.5962    1.4489  -18.6668 H           1 SY9       0.0635
     45 H20       -39.3987    0.6870  -17.1046 H           1 SY9       0.0635
     46 H21       -37.1007   -0.3654  -16.8832 H           1 SY9       0.0604
     47 H22       -35.3533    0.9675  -18.8981 H           1 SY9       0.0338
     48 H23       -35.3740   -0.7091  -18.3746 H           1 SY9       0.0338
     49 H24       -33.8916   -0.2736  -16.5682 H           1 SY9       0.0886
     50 H25       -32.1681    0.4305  -17.6434 H           1 SY9       0.2123
@<TRIPOS>BOND
     1     1     2   1
     2     1    13   1
     3     1    16   1
     4     2     3   1
     5     3     4   1
     6     3    18   1
     7     4     5   1
     8     4    22   1
     9     5     6   1
    10     5    13   1
    11     6     7   1
    12     6    24   1
    13     7     8  ar
    14     7    12  ar
    15     8     9  ar
    16     9    10  ar
    17    10    11  ar
    18    11    12  ar
    19    12    13   1
    20    13    14   1
    21    14    15   1
    22    15    16   1
    23    16    17   1
    24    17    18   1
    25    18    19   2
    26    19    20   1
    27    20    21   1
    28    21    22   1
    29    22    23   1
    30    23    24   1
    31    24    25   1
    32     1    26   1
    33     2    27   1
    34     2    28   1
    35     3    29   1
    36     4    30   1
    37     5    31   1
    38     8    32   1
    39     9    33   1
    40    10    34   1
    41    11    35   1
    42    14    36   1
    43    14    37   1
    44    15    38   1
    45    15    39   1
    46    16    40   1
    47    17    41   1
    48    17    42   1
    49    19    43   1
    50    20    44   1
    51    20    45   1
    52    22    46   1
    53    23    47   1
    54    23    48   1
    55    24    49   1
    56    25    50   1
@<TRIPOS>SUBSTRUCTURE
     1  SY9      1

