@<TRIPOS>MOLECULE
2xys_ligand_013
    50    56
SMALL
GAST_HUCK
****
This file was generated by PARSER (from files_GN.cpp)

@<TRIPOS>ATOM
      1 CAV       -46.7622   -1.6386  -19.1235 C.3         1 SY9      -0.0392
      2 CAU       -45.4109   -1.4709  -18.3817 C.3         1 SY9      -0.0074
      3 CAT       -45.7378   -0.9279  -16.9537 C.3         1 SY9      -0.0009
      4 CAN       -46.3818   -2.1189  -16.1781 C.3         1 SY9       0.0127
      5 CAK       -47.6859   -2.6508  -16.8649 C.3         1 SY9       0.0377
      6 NAH       -47.7866   -4.0179  -16.4320 N.pl3       1 SY9      -0.2664
      7 CAA       -47.6144   -4.8507  -17.4795 C.ar        1 SY9       0.0752
      8 CAF       -47.4945   -6.2590  -17.4884 C.ar        1 SY9      -0.0107
      9 CAE       -47.2739   -6.9267  -18.7090 C.ar        1 SY9      -0.0448
     10 CAD       -47.1691   -6.1972  -19.9088 C.ar        1 SY9      -0.0454
     11 CAC       -47.2858   -4.7923  -19.8976 C.ar        1 SY9      -0.0502
     12 CAB       -47.4967   -4.1253  -18.6732 C.ar        1 SY9      -0.0229
     13 CAG       -47.7107   -2.6810  -18.4412 C.3         1 SY9       0.0241
     14 CAW       -49.0740   -2.2362  -19.0293 C.3         1 SY9      -0.0311
     15 CAX       -48.9829   -0.7012  -19.0309 C.3         1 SY9      -0.0400
     16 NAY       -47.5412   -0.3528  -19.1888 N.4         1 SY9       0.2407
     17 CAS       -47.0765    0.7572  -18.2889 C.3         1 SY9      -0.0074
     18 CAR       -46.5854    0.2824  -16.9882 C.2         1 SY9      -0.0310
     19 CAQ       -46.9093    0.9550  -15.8646 C.2         1 SY9      -0.0782
     20 CAP       -46.5966    0.5069  -14.5258 C.3         1 SY9       0.0552
     21 OAO       -47.2485   -0.7410  -14.2292 O.3         1 SY9      -0.3712
     22 CAM       -46.6311   -1.9841  -14.6350 C.3         1 SY9       0.0708
     23 CAL       -47.5488   -3.1428  -14.0895 C.3         1 SY9       0.0233
     24 CAI       -47.6708   -4.3843  -15.0313 C.3         1 SY9       0.1466
     25 OAJ       -48.7865   -5.1815  -14.6317 O.3         1 SY9      -0.3686
     26 H1        -46.5495   -1.9443  -20.1524 H           1 SY9       0.0728
     27 H2        -44.7674   -0.7732  -18.9171 H           1 SY9       0.0333
     28 H3        -44.8754   -2.4229  -18.3534 H           1 SY9       0.0333
     29 H4        -44.7832   -0.6745  -16.4831 H           1 SY9       0.0453
     30 H5        -45.6270   -2.9161  -16.2450 H           1 SY9       0.0364
     31 H6        -48.5433   -2.0823  -16.4899 H           1 SY9       0.0464
     32 H7        -47.5654   -6.7951  -16.6223 H           1 SY9       0.0603
     33 H8        -47.1912   -7.9465  -18.7235 H           1 SY9       0.0812
     34 H9        -47.0154   -6.6877  -20.7926 H           1 SY9       0.0608
     35 H10       -47.2247   -4.2701  -20.7730 H           1 SY9       0.0786
     36 H11       -49.9242   -2.5887  -18.4386 H           1 SY9       0.0203
     37 H12       -49.1976   -2.5889  -20.0586 H           1 SY9       0.0203
     38 H13       -49.3984   -0.3284  -18.0885 H           1 SY9       0.0805
     39 H14       -49.5668   -0.2750  -19.8503 H           1 SY9       0.0805
     40 H15       -47.4185    0.0238  -20.1350 H           1 SY9       0.2039
     41 H16       -47.8619    1.5136  -18.1950 H           1 SY9       0.0964
     42 H17       -46.2479    1.2615  -18.7860 H           1 SY9       0.0964
     43 H18       -47.4110    1.8104  -15.9440 H           1 SY9       0.0266
     44 H19       -46.9813    1.2384  -13.8111 H           1 SY9       0.0635
     45 H20       -45.5156    0.4573  -14.3867 H           1 SY9       0.0635
     46 H21       -45.6629   -2.0648  -14.1307 H           1 SY9       0.0604
     47 H22       -48.5603   -2.7551  -13.9376 H           1 SY9       0.0338
     48 H23       -47.1909   -3.4687  -13.1098 H           1 SY9       0.0338
     49 H24       -46.7568   -4.9757  -14.9034 H           1 SY9       0.0886
     50 H25       -48.4109   -6.0381  -14.3314 H           1 SY9       0.2123
@<TRIPOS>BOND
     1     1     2   1
     2     1    13   1
     3     1    16   1
     4     2     3   1
     5     3     4   1
     6     3    18   1
     7     4     5   1
     8     4    22   1
     9     5     6   1
    10     5    13   1
    11     6     7   1
    12     6    24   1
    13     7     8  ar
    14     7    12  ar
    15     8     9  ar
    16     9    10  ar
    17    10    11  ar
    18    11    12  ar
    19    12    13   1
    20    13    14   1
    21    14    15   1
    22    15    16   1
    23    16    17   1
    24    17    18   1
    25    18    19   2
    26    19    20   1
    27    20    21   1
    28    21    22   1
    29    22    23   1
    30    23    24   1
    31    24    25   1
    32     1    26   1
    33     2    27   1
    34     2    28   1
    35     3    29   1
    36     4    30   1
    37     5    31   1
    38     8    32   1
    39     9    33   1
    40    10    34   1
    41    11    35   1
    42    14    36   1
    43    14    37   1
    44    15    38   1
    45    15    39   1
    46    16    40   1
    47    17    41   1
    48    17    42   1
    49    19    43   1
    50    20    44   1
    51    20    45   1
    52    22    46   1
    53    23    47   1
    54    23    48   1
    55    24    49   1
    56    25    50   1
@<TRIPOS>SUBSTRUCTURE
     1  SY9      1

