@<TRIPOS>MOLECULE
2xys_ligand_034
    50    56
SMALL
GAST_HUCK
****
This file was generated by PARSER (from files_GN.cpp)

@<TRIPOS>ATOM
      1 CAV       -31.9105   -0.1997  -14.7597 C.3         1 SY9      -0.0392
      2 CAU       -31.9922    0.3415  -16.2129 C.3         1 SY9      -0.0074
      3 CAT       -33.2086    1.3218  -16.2630 C.3         1 SY9      -0.0009
      4 CAN       -32.7868    2.5881  -15.4492 C.3         1 SY9       0.0127
      5 CAK       -32.4237    2.2573  -13.9633 C.3         1 SY9       0.0377
      6 NAH       -31.5304    3.3071  -13.5698 N.pl3       1 SY9      -0.2664
      7 CAA       -30.2896    2.8131  -13.3521 C.ar        1 SY9       0.0752
      8 CAF       -29.0899    3.5000  -13.0909 C.ar        1 SY9      -0.0107
      9 CAE       -27.8916    2.7713  -12.9381 C.ar        1 SY9      -0.0448
     10 CAD       -27.8983    1.3662  -13.0449 C.ar        1 SY9      -0.0454
     11 CAC       -29.0992    0.6811  -13.3058 C.ar        1 SY9      -0.0502
     12 CAB       -30.2944    1.4149  -13.4718 C.ar        1 SY9      -0.0229
     13 CAG       -31.6601    0.9053  -13.6840 C.3         1 SY9       0.0241
     14 CAW       -32.1682    0.1878  -12.4088 C.3         1 SY9      -0.0311
     15 CAX       -33.4170   -0.5602  -12.9014 C.3         1 SY9      -0.0400
     16 NAY       -33.1800   -0.8836  -14.3373 N.4         1 SY9       0.2407
     17 CAS       -34.3760   -0.6728  -15.2283 C.3         1 SY9      -0.0074
     18 CAR       -34.4513    0.6987  -15.7669 C.2         1 SY9      -0.0310
     19 CAQ       -35.6332    1.3487  -15.7866 C.2         1 SY9      -0.0782
     20 CAP       -35.8023    2.7330  -16.1875 C.3         1 SY9       0.0552
     21 OAO       -35.1150    3.5982  -15.2725 O.3         1 SY9      -0.3712
     22 CAM       -33.7108    3.8578  -15.4816 C.3         1 SY9       0.0708
     23 CAL       -33.2935    4.9092  -14.3832 C.3         1 SY9       0.0233
     24 CAI       -31.8675    4.7048  -13.7771 C.3         1 SY9       0.1466
     25 OAJ       -31.7415    5.4243  -12.5555 O.3         1 SY9      -0.3686
     26 H1        -31.1092   -0.9422  -14.7184 H           1 SY9       0.0728
     27 H2        -32.1422   -0.4865  -16.9113 H           1 SY9       0.0333
     28 H3        -31.0572    0.8272  -16.4953 H           1 SY9       0.0333
     29 H4        -33.3498    1.6046  -17.3106 H           1 SY9       0.0453
     30 H5        -31.8657    2.9234  -15.9417 H           1 SY9       0.0364
     31 H6        -33.3348    2.3035  -13.3567 H           1 SY9       0.0464
     32 H7        -29.0783    4.5219  -13.0147 H           1 SY9       0.0603
     33 H8        -27.0177    3.2611  -12.7467 H           1 SY9       0.0812
     34 H9        -27.0278    0.8450  -12.9245 H           1 SY9       0.0608
     35 H10       -29.1012   -0.3370  -13.3645 H           1 SY9       0.0786
     36 H11       -32.4037    0.8818  -11.5968 H           1 SY9       0.0203
     37 H12       -31.4357   -0.5386  -12.0422 H           1 SY9       0.0203
     38 H13       -34.2912    0.0826  -12.7554 H           1 SY9       0.0805
     39 H14       -33.5729   -1.4791  -12.3318 H           1 SY9       0.0805
     40 H15       -32.9908   -1.8895  -14.3698 H           1 SY9       0.2039
     41 H16       -35.2864   -0.9782  -14.7060 H           1 SY9       0.0964
     42 H17       -34.2810   -1.3557  -16.0773 H           1 SY9       0.0964
     43 H18       -36.4499    0.8722  -15.4770 H           1 SY9       0.0266
     44 H19       -36.8636    2.9904  -16.1334 H           1 SY9       0.0635
     45 H20       -35.4855    2.8872  -17.2225 H           1 SY9       0.0635
     46 H21       -33.6054    4.3353  -16.4597 H           1 SY9       0.0604
     47 H22       -34.0012    4.8524  -13.5517 H           1 SY9       0.0338
     48 H23       -33.3747    5.9222  -14.7884 H           1 SY9       0.0338
     49 H24       -31.1472    5.1346  -14.4827 H           1 SY9       0.0886
     50 H25       -32.3761    4.9951  -11.9413 H           1 SY9       0.2123
@<TRIPOS>BOND
     1     1     2   1
     2     1    13   1
     3     1    16   1
     4     2     3   1
     5     3     4   1
     6     3    18   1
     7     4     5   1
     8     4    22   1
     9     5     6   1
    10     5    13   1
    11     6     7   1
    12     6    24   1
    13     7     8  ar
    14     7    12  ar
    15     8     9  ar
    16     9    10  ar
    17    10    11  ar
    18    11    12  ar
    19    12    13   1
    20    13    14   1
    21    14    15   1
    22    15    16   1
    23    16    17   1
    24    17    18   1
    25    18    19   2
    26    19    20   1
    27    20    21   1
    28    21    22   1
    29    22    23   1
    30    23    24   1
    31    24    25   1
    32     1    26   1
    33     2    27   1
    34     2    28   1
    35     3    29   1
    36     4    30   1
    37     5    31   1
    38     8    32   1
    39     9    33   1
    40    10    34   1
    41    11    35   1
    42    14    36   1
    43    14    37   1
    44    15    38   1
    45    15    39   1
    46    16    40   1
    47    17    41   1
    48    17    42   1
    49    19    43   1
    50    20    44   1
    51    20    45   1
    52    22    46   1
    53    23    47   1
    54    23    48   1
    55    24    49   1
    56    25    50   1
@<TRIPOS>SUBSTRUCTURE
     1  SY9      1

