@<TRIPOS>MOLECULE
2xys_ligand_069
    50    56
SMALL
GAST_HUCK
****
This file was generated by PARSER (from files_GN.cpp)

@<TRIPOS>ATOM
      1 CAV       -41.5316    7.2698  -18.3573 C.3         1 SY9      -0.0392
      2 CAU       -40.9527    5.8434  -18.1472 C.3         1 SY9      -0.0074
      3 CAT       -40.4454    5.7774  -16.6697 C.3         1 SY9      -0.0009
      4 CAN       -41.7404    5.7847  -15.7991 C.3         1 SY9       0.0127
      5 CAK       -42.4865    7.1552  -15.9145 C.3         1 SY9       0.0377
      6 NAH       -43.7874    6.9199  -15.3792 N.pl3       1 SY9      -0.2664
      7 CAA       -44.6896    6.8369  -16.3796 C.ar        1 SY9       0.0752
      8 CAF       -46.0433    6.4417  -16.3513 C.ar        1 SY9      -0.0107
      9 CAE       -46.7761    6.3991  -17.5534 C.ar        1 SY9      -0.0448
     10 CAD       -46.1712    6.7647  -18.7705 C.ar        1 SY9      -0.0454
     11 CAC       -44.8213    7.1593  -18.7935 C.ar        1 SY9      -0.0502
     12 CAB       -44.0802    7.1793  -17.5966 C.ar        1 SY9      -0.0229
     13 CAG       -42.6992    7.6575  -17.3862 C.3         1 SY9       0.0241
     14 CAW       -42.6493    9.2020  -17.4983 C.3         1 SY9      -0.0311
     15 CAX       -41.1454    9.5202  -17.5584 C.3         1 SY9      -0.0400
     16 NAY       -40.4752    8.3176  -18.1323 N.4         1 SY9       0.2407
     17 CAS       -39.2365    7.8759  -17.3992 C.3         1 SY9      -0.0074
     18 CAR       -39.5225    6.8904  -16.3408 C.2         1 SY9      -0.0310
     19 CAQ       -39.0195    7.0733  -15.1019 C.2         1 SY9      -0.0782
     20 CAP       -39.3024    6.2434  -13.9464 C.3         1 SY9       0.0552
     21 OAO       -40.6967    6.2807  -13.5760 O.3         1 SY9      -0.3712
     22 CAM       -41.5821    5.4008  -14.3004 C.3         1 SY9       0.0708
     23 CAL       -42.9899    5.3710  -13.6183 C.3         1 SY9       0.0233
     24 CAI       -43.9201    6.5686  -13.9847 C.3         1 SY9       0.1466
     25 OAJ       -43.5982    7.7058  -13.1862 O.3         1 SY9      -0.3686
     26 H1        -41.8717    7.3418  -19.3938 H           1 SY9       0.0728
     27 H2        -40.1249    5.6707  -18.8365 H           1 SY9       0.0333
     28 H3        -41.7104    5.0883  -18.3682 H           1 SY9       0.0333
     29 H4        -39.9219    4.8266  -16.5354 H           1 SY9       0.0453
     30 H5        -42.3920    4.9968  -16.2052 H           1 SY9       0.0364
     31 H6        -41.9670    7.9149  -15.3203 H           1 SY9       0.0464
     32 H7        -46.4991    6.1750  -15.4785 H           1 SY9       0.0603
     33 H8        -47.7495    6.0972  -17.5440 H           1 SY9       0.0812
     34 H9        -46.7129    6.7384  -19.6381 H           1 SY9       0.0608
     35 H10       -44.3849    7.4242  -19.6724 H           1 SY9       0.0786
     36 H11       -43.1336    9.6999  -16.6562 H           1 SY9       0.0203
     37 H12       -43.1333    9.5436  -18.4203 H           1 SY9       0.0203
     38 H13       -40.7883    9.7555  -16.5510 H           1 SY9       0.0805
     39 H14       -40.9613   10.3896  -18.1931 H           1 SY9       0.0805
     40 H15       -40.1436    8.5904  -19.0564 H           1 SY9       0.2039
     41 H16       -38.5784    7.3931  -18.1258 H           1 SY9       0.0964
     42 H17       -38.6835    8.7512  -17.0454 H           1 SY9       0.0964
     43 H18       -38.4184    7.8486  -14.9461 H           1 SY9       0.0266
     44 H19       -38.7449    6.6337  -13.0917 H           1 SY9       0.0635
     45 H20       -38.9426    5.2249  -14.1175 H           1 SY9       0.0635
     46 H21       -41.1841    4.3827  -14.2536 H           1 SY9       0.0604
     47 H22       -42.8745    5.3165  -12.5322 H           1 SY9       0.0338
     48 H23       -43.4966    4.4536  -13.9330 H           1 SY9       0.0338
     49 H24       -44.9445    6.2882  -13.7411 H           1 SY9       0.0886
     50 H25       -44.2589    8.3919  -13.4279 H           1 SY9       0.2123
@<TRIPOS>BOND
     1     1     2   1
     2     1    13   1
     3     1    16   1
     4     2     3   1
     5     3     4   1
     6     3    18   1
     7     4     5   1
     8     4    22   1
     9     5     6   1
    10     5    13   1
    11     6     7   1
    12     6    24   1
    13     7     8  ar
    14     7    12  ar
    15     8     9  ar
    16     9    10  ar
    17    10    11  ar
    18    11    12  ar
    19    12    13   1
    20    13    14   1
    21    14    15   1
    22    15    16   1
    23    16    17   1
    24    17    18   1
    25    18    19   2
    26    19    20   1
    27    20    21   1
    28    21    22   1
    29    22    23   1
    30    23    24   1
    31    24    25   1
    32     1    26   1
    33     2    27   1
    34     2    28   1
    35     3    29   1
    36     4    30   1
    37     5    31   1
    38     8    32   1
    39     9    33   1
    40    10    34   1
    41    11    35   1
    42    14    36   1
    43    14    37   1
    44    15    38   1
    45    15    39   1
    46    16    40   1
    47    17    41   1
    48    17    42   1
    49    19    43   1
    50    20    44   1
    51    20    45   1
    52    22    46   1
    53    23    47   1
    54    23    48   1
    55    24    49   1
    56    25    50   1
@<TRIPOS>SUBSTRUCTURE
     1  SY9      1

