@<TRIPOS>MOLECULE
2xys_ligand_020
    50    56
SMALL
GAST_HUCK
****
This file was generated by PARSER (from files_GN.cpp)

@<TRIPOS>ATOM
      1 CAV       -45.6335   -3.1043  -20.3452 C.3         1 SY9      -0.0392
      2 CAU       -46.2746   -4.3468  -21.0190 C.3         1 SY9      -0.0074
      3 CAT       -45.5980   -5.6062  -20.3867 C.3         1 SY9      -0.0009
      4 CAN       -46.1282   -5.7009  -18.9203 C.3         1 SY9       0.0127
      5 CAK       -45.7871   -4.4270  -18.0719 C.3         1 SY9       0.0377
      6 NAH       -46.7889   -4.3972  -17.0444 N.pl3       1 SY9      -0.2664
      7 CAA       -47.6013   -3.3302  -17.2114 C.ar        1 SY9       0.0752
      8 CAF       -48.7819   -2.9880  -16.5178 C.ar        1 SY9      -0.0107
      9 CAE       -49.4998   -1.8359  -16.8964 C.ar        1 SY9      -0.0448
     10 CAD       -49.0467   -1.0387  -17.9673 C.ar        1 SY9      -0.0454
     11 CAC       -47.8667   -1.3791  -18.6554 C.ar        1 SY9      -0.0502
     12 CAB       -47.1539   -2.5362  -18.2764 C.ar        1 SY9      -0.0229
     13 CAG       -45.8666   -3.0332  -18.8009 C.3         1 SY9       0.0241
     14 CAW       -44.7185   -2.0765  -18.3918 C.3         1 SY9      -0.0311
     15 CAX       -43.5434   -2.5295  -19.2719 C.3         1 SY9      -0.0400
     16 NAY       -44.1410   -3.0715  -20.5246 N.4         1 SY9       0.2407
     17 CAS       -43.5029   -4.3373  -21.0286 C.3         1 SY9      -0.0074
     18 CAR       -44.1222   -5.5524  -20.4731 C.2         1 SY9      -0.0310
     19 CAQ       -43.3491   -6.5762  -20.0559 C.2         1 SY9      -0.0782
     20 CAP       -43.8500   -7.7632  -19.3925 C.3         1 SY9       0.0552
     21 OAO       -44.4246   -7.4124  -18.1236 O.3         1 SY9      -0.3712
     22 CAM       -45.8038   -6.9833  -18.0746 C.3         1 SY9       0.0708
     23 CAL       -46.1480   -6.7796  -16.5515 C.3         1 SY9       0.0233
     24 CAI       -47.0769   -5.5619  -16.2322 C.3         1 SY9       0.1466
     25 OAJ       -46.9850   -5.2214  -14.8499 O.3         1 SY9      -0.3686
     26 H1        -46.0433   -2.2087  -20.8232 H           1 SY9       0.0728
     27 H2        -46.0949   -4.3209  -22.0976 H           1 SY9       0.0333
     28 H3        -47.3591   -4.3416  -20.8763 H           1 SY9       0.0333
     29 H4        -45.9529   -6.4763  -20.9484 H           1 SY9       0.0453
     30 H5        -47.2210   -5.7397  -19.0355 H           1 SY9       0.0364
     31 H6        -44.7993   -4.5553  -17.6159 H           1 SY9       0.0464
     32 H7        -49.1202   -3.5654  -15.7456 H           1 SY9       0.0603
     33 H8        -50.3516   -1.5774  -16.3935 H           1 SY9       0.0812
     34 H9        -49.5715   -0.2041  -18.2385 H           1 SY9       0.0608
     35 H10       -47.5292   -0.7842  -19.4150 H           1 SY9       0.0786
     36 H11       -44.4787   -2.1349  -17.3276 H           1 SY9       0.0203
     37 H12       -44.9675   -1.0376  -18.6316 H           1 SY9       0.0203
     38 H13       -42.9605   -3.2804  -18.7281 H           1 SY9       0.0805
     39 H14       -42.8866   -1.6874  -19.5031 H           1 SY9       0.0805
     40 H15       -43.9621   -2.3719  -21.2466 H           1 SY9       0.2039
     41 H16       -42.4205   -4.3006  -20.8705 H           1 SY9       0.0964
     42 H17       -43.6428   -4.3653  -22.1120 H           1 SY9       0.0964
     43 H18       -42.3631   -6.5124  -20.1726 H           1 SY9       0.0266
     44 H19       -43.0142   -8.4354  -19.1853 H           1 SY9       0.0635
     45 H20       -44.5511   -8.3095  -20.0291 H           1 SY9       0.0635
     46 H21       -46.4218   -7.8047  -18.4534 H           1 SY9       0.0604
     47 H22       -45.2186   -6.6214  -15.9959 H           1 SY9       0.0338
     48 H23       -46.5997   -7.6925  -16.1542 H           1 SY9       0.0338
     49 H24       -48.1055   -5.8745  -16.4347 H           1 SY9       0.0886
     50 H25       -47.2343   -6.0402  -14.3703 H           1 SY9       0.2123
@<TRIPOS>BOND
     1     1     2   1
     2     1    13   1
     3     1    16   1
     4     2     3   1
     5     3     4   1
     6     3    18   1
     7     4     5   1
     8     4    22   1
     9     5     6   1
    10     5    13   1
    11     6     7   1
    12     6    24   1
    13     7     8  ar
    14     7    12  ar
    15     8     9  ar
    16     9    10  ar
    17    10    11  ar
    18    11    12  ar
    19    12    13   1
    20    13    14   1
    21    14    15   1
    22    15    16   1
    23    16    17   1
    24    17    18   1
    25    18    19   2
    26    19    20   1
    27    20    21   1
    28    21    22   1
    29    22    23   1
    30    23    24   1
    31    24    25   1
    32     1    26   1
    33     2    27   1
    34     2    28   1
    35     3    29   1
    36     4    30   1
    37     5    31   1
    38     8    32   1
    39     9    33   1
    40    10    34   1
    41    11    35   1
    42    14    36   1
    43    14    37   1
    44    15    38   1
    45    15    39   1
    46    16    40   1
    47    17    41   1
    48    17    42   1
    49    19    43   1
    50    20    44   1
    51    20    45   1
    52    22    46   1
    53    23    47   1
    54    23    48   1
    55    24    49   1
    56    25    50   1
@<TRIPOS>SUBSTRUCTURE
     1  SY9      1

