@<TRIPOS>MOLECULE
2xys_ligand_042
    50    56
SMALL
GAST_HUCK
****
This file was generated by PARSER (from files_GN.cpp)

@<TRIPOS>ATOM
      1 CAV       -50.3430   -4.1133  -18.3412 C.3         1 SY9      -0.0392
      2 CAU       -49.9274   -3.5655  -16.9490 C.3         1 SY9      -0.0074
      3 CAT       -48.4446   -3.0832  -17.0734 C.3         1 SY9      -0.0009
      4 CAN       -48.4777   -1.7892  -17.9475 C.3         1 SY9       0.0127
      5 CAK       -49.0855   -2.0409  -19.3708 C.3         1 SY9       0.0377
      6 NAH       -49.5890   -0.7595  -19.7757 N.pl3       1 SY9      -0.2664
      7 CAA       -50.9356   -0.7899  -19.8665 C.ar        1 SY9       0.0752
      8 CAF       -51.8374    0.2711  -20.0956 C.ar        1 SY9      -0.0107
      9 CAE       -53.2213    0.0111  -20.1108 C.ar        1 SY9      -0.0448
     10 CAD       -53.6990   -1.2975  -19.8989 C.ar        1 SY9      -0.0454
     11 CAC       -52.7964   -2.3534  -19.6647 C.ar        1 SY9      -0.0502
     12 CAB       -51.4116   -2.0874  -19.6364 C.ar        1 SY9      -0.0229
     13 CAG       -50.2954   -3.0428  -19.4809 C.3         1 SY9       0.0241
     14 CAW       -50.1999   -3.9624  -20.7259 C.3         1 SY9      -0.0311
     15 CAX       -49.2559   -5.0855  -20.2697 C.3         1 SY9      -0.0400
     16 NAY       -49.4430   -5.2286  -18.7983 N.4         1 SY9       0.2407
     17 CAS       -48.1631   -5.4108  -18.0276 C.3         1 SY9      -0.0074
     18 CAR       -47.5554   -4.1340  -17.6154 C.2         1 SY9      -0.0310
     19 CAQ       -46.2254   -3.9459  -17.7386 C.2         1 SY9      -0.0782
     20 CAP       -45.5435   -2.6961  -17.4663 C.3         1 SY9       0.0552
     21 OAO       -45.9750   -1.6822  -18.3868 O.3         1 SY9      -0.3712
     22 CAM       -47.1721   -0.9275  -18.0935 C.3         1 SY9       0.0708
     23 CAL       -47.3063    0.1397  -19.2439 C.3         1 SY9       0.0233
     24 CAI       -48.7700    0.4342  -19.7097 C.3         1 SY9       0.1466
     25 OAJ       -48.7735    1.0953  -20.9742 O.3         1 SY9      -0.3686
     26 H1        -51.3563   -4.5190  -18.2572 H           1 SY9       0.0728
     27 H2        -50.0077   -4.3563  -16.1976 H           1 SY9       0.0333
     28 H3        -50.6024   -2.7623  -16.6389 H           1 SY9       0.0333
     29 H4        -48.1059   -2.8211  -16.0659 H           1 SY9       0.0453
     30 H5        -49.1642   -1.1222  -17.4055 H           1 SY9       0.0364
     31 H6        -48.2840   -2.3506  -20.0500 H           1 SY9       0.0464
     32 H7        -51.4983    1.2228  -20.2470 H           1 SY9       0.0603
     33 H8        -53.8814    0.7737  -20.2785 H           1 SY9       0.0812
     34 H9        -54.7045   -1.4823  -19.9171 H           1 SY9       0.0608
     35 H10       -53.1479   -3.3024  -19.5237 H           1 SY9       0.0786
     36 H11       -49.8172   -3.4437  -21.6099 H           1 SY9       0.0203
     37 H12       -51.1757   -4.3937  -20.9737 H           1 SY9       0.0203
     38 H13       -48.2290   -4.8140  -20.5353 H           1 SY9       0.0805
     39 H14       -49.5009   -6.0248  -20.7714 H           1 SY9       0.0805
     40 H15       -49.9719   -6.0940  -18.6627 H           1 SY9       0.2039
     41 H16       -47.4755   -6.0513  -18.5898 H           1 SY9       0.0964
     42 H17       -48.4025   -5.9639  -17.1176 H           1 SY9       0.0964
     43 H18       -45.6635   -4.6974  -18.0705 H           1 SY9       0.0266
     44 H19       -44.4731   -2.8322  -17.6351 H           1 SY9       0.0635
     45 H20       -45.6698   -2.3923  -16.4237 H           1 SY9       0.0635
     46 H21       -47.0091   -0.3927  -17.1512 H           1 SY9       0.0604
     47 H22       -46.7668   -0.2248  -20.1232 H           1 SY9       0.0338
     48 H23       -46.8247    1.0739  -18.9415 H           1 SY9       0.0338
     49 H24       -49.2111    1.1165  -18.9779 H           1 SY9       0.0886
     50 H25       -48.3850    0.4531  -21.6056 H           1 SY9       0.2123
@<TRIPOS>BOND
     1     1     2   1
     2     1    13   1
     3     1    16   1
     4     2     3   1
     5     3     4   1
     6     3    18   1
     7     4     5   1
     8     4    22   1
     9     5     6   1
    10     5    13   1
    11     6     7   1
    12     6    24   1
    13     7     8  ar
    14     7    12  ar
    15     8     9  ar
    16     9    10  ar
    17    10    11  ar
    18    11    12  ar
    19    12    13   1
    20    13    14   1
    21    14    15   1
    22    15    16   1
    23    16    17   1
    24    17    18   1
    25    18    19   2
    26    19    20   1
    27    20    21   1
    28    21    22   1
    29    22    23   1
    30    23    24   1
    31    24    25   1
    32     1    26   1
    33     2    27   1
    34     2    28   1
    35     3    29   1
    36     4    30   1
    37     5    31   1
    38     8    32   1
    39     9    33   1
    40    10    34   1
    41    11    35   1
    42    14    36   1
    43    14    37   1
    44    15    38   1
    45    15    39   1
    46    16    40   1
    47    17    41   1
    48    17    42   1
    49    19    43   1
    50    20    44   1
    51    20    45   1
    52    22    46   1
    53    23    47   1
    54    23    48   1
    55    24    49   1
    56    25    50   1
@<TRIPOS>SUBSTRUCTURE
     1  SY9      1

