@<TRIPOS>MOLECULE
2xys_ligand_083
    50    56
SMALL
GAST_HUCK
****
This file was generated by PARSER (from files_GN.cpp)

@<TRIPOS>ATOM
      1 CAV       -36.2028    2.6079  -15.5855 C.3         1 SY9      -0.0392
      2 CAU       -35.6114    1.3443  -16.2670 C.3         1 SY9      -0.0074
      3 CAT       -34.1438    1.1928  -15.7484 C.3         1 SY9      -0.0009
      4 CAN       -34.2500    0.7506  -14.2544 C.3         1 SY9       0.0127
      5 CAK       -35.0262    1.7898  -13.3753 C.3         1 SY9       0.0377
      6 NAH       -35.5441    1.0136  -12.2868 N.pl3       1 SY9      -0.2664
      7 CAA       -36.8946    0.9690  -12.3445 C.ar        1 SY9       0.0752
      8 CAF       -37.7973    0.2112  -11.5683 C.ar        1 SY9      -0.0107
      9 CAE       -39.1792    0.2800  -11.8324 C.ar        1 SY9      -0.0448
     10 CAD       -39.6519    1.0980  -12.8778 C.ar        1 SY9      -0.0454
     11 CAC       -38.7520    1.8571  -13.6515 C.ar        1 SY9      -0.0502
     12 CAB       -37.3691    1.7765  -13.3855 C.ar        1 SY9      -0.0229
     13 CAG       -36.2642    2.5134  -14.0262 C.3         1 SY9       0.0241
     14 CAW       -36.3420    4.0155  -13.6558 C.3         1 SY9      -0.0311
     15 CAX       -35.3755    4.6767  -14.6480 C.3         1 SY9      -0.0400
     16 NAY       -35.3927    3.8396  -15.8790 N.4         1 SY9       0.2407
     17 CAS       -34.0398    3.6100  -16.4890 C.3         1 SY9      -0.0074
     18 CAR       -33.3525    2.4278  -15.9366 C.2         1 SY9      -0.0310
     19 CAQ       -32.0434    2.4875  -15.6167 C.2         1 SY9      -0.0782
     20 CAP       -31.3038    1.4182  -14.9776 C.3         1 SY9       0.0552
     21 OAO       -31.8182    1.1875  -13.6572 O.3         1 SY9      -0.3712
     22 CAM       -32.9512    0.3055  -13.4915 C.3         1 SY9       0.0708
     23 CAL       -33.1941    0.1893  -11.9393 C.3         1 SY9       0.0233
     24 CAI       -34.6930    0.1387  -11.5020 C.3         1 SY9       0.1466
     25 OAJ       -34.8312    0.4567  -10.1217 O.3         1 SY9      -0.3686
     26 H1        -37.2069    2.7718  -15.9877 H           1 SY9       0.0728
     27 H2        -35.6198    1.4692  -17.3539 H           1 SY9       0.0333
     28 H3        -36.2246    0.4668  -16.0416 H           1 SY9       0.0333
     29 H4        -33.6805    0.3861  -16.3250 H           1 SY9       0.0453
     30 H5        -34.8522   -0.1694  -14.2932 H           1 SY9       0.0364
     31 H6        -34.3197    2.5331  -12.9912 H           1 SY9       0.0464
     32 H7        -37.4547   -0.3961  -10.8240 H           1 SY9       0.0603
     33 H8        -39.8343   -0.2684  -11.2701 H           1 SY9       0.0812
     34 H9        -40.6529    1.1449  -13.0719 H           1 SY9       0.0608
     35 H10       -39.1033    2.4531  -14.4029 H           1 SY9       0.0786
     36 H11       -36.0591    4.2125  -12.6173 H           1 SY9       0.0203
     37 H12       -37.3500    4.4098  -13.8239 H           1 SY9       0.0203
     38 H13       -34.3821    4.7348  -14.1919 H           1 SY9       0.0805
     39 H14       -35.7016    5.6889  -14.8867 H           1 SY9       0.0805
     40 H15       -35.9191    4.3714  -16.5771 H           1 SY9       0.2039
     41 H16       -33.4429    4.5230  -16.4164 H           1 SY9       0.0964
     42 H17       -34.1876    3.4366  -17.5588 H           1 SY9       0.0964
     43 H18       -31.5399    3.3277  -15.7986 H           1 SY9       0.0266
     44 H19       -30.2621    1.7261  -14.8614 H           1 SY9       0.0635
     45 H20       -31.3055    0.5125  -15.5894 H           1 SY9       0.0635
     46 H21       -32.6614   -0.6838  -13.8629 H           1 SY9       0.0604
     47 H22       -32.7548    1.0610  -11.4452 H           1 SY9       0.0338
     48 H23       -32.6754   -0.6905  -11.5491 H           1 SY9       0.0338
     49 H24       -35.0354   -0.8875  -11.6343 H           1 SY9       0.0886
     50 H25       -34.3999   -0.2838   -9.6409 H           1 SY9       0.2123
@<TRIPOS>BOND
     1     1     2   1
     2     1    13   1
     3     1    16   1
     4     2     3   1
     5     3     4   1
     6     3    18   1
     7     4     5   1
     8     4    22   1
     9     5     6   1
    10     5    13   1
    11     6     7   1
    12     6    24   1
    13     7     8  ar
    14     7    12  ar
    15     8     9  ar
    16     9    10  ar
    17    10    11  ar
    18    11    12  ar
    19    12    13   1
    20    13    14   1
    21    14    15   1
    22    15    16   1
    23    16    17   1
    24    17    18   1
    25    18    19   2
    26    19    20   1
    27    20    21   1
    28    21    22   1
    29    22    23   1
    30    23    24   1
    31    24    25   1
    32     1    26   1
    33     2    27   1
    34     2    28   1
    35     3    29   1
    36     4    30   1
    37     5    31   1
    38     8    32   1
    39     9    33   1
    40    10    34   1
    41    11    35   1
    42    14    36   1
    43    14    37   1
    44    15    38   1
    45    15    39   1
    46    16    40   1
    47    17    41   1
    48    17    42   1
    49    19    43   1
    50    20    44   1
    51    20    45   1
    52    22    46   1
    53    23    47   1
    54    23    48   1
    55    24    49   1
    56    25    50   1
@<TRIPOS>SUBSTRUCTURE
     1  SY9      1

