@<TRIPOS>MOLECULE
2xys_ligand_071
    50    56
SMALL
GAST_HUCK
****
This file was generated by PARSER (from files_GN.cpp)

@<TRIPOS>ATOM
      1 CAV       -39.3838    5.6007  -17.5231 C.3         1 SY9      -0.0392
      2 CAU       -38.6566    5.8180  -16.1670 C.3         1 SY9      -0.0074
      3 CAT       -39.4643    6.9143  -15.3942 C.3         1 SY9      -0.0009
      4 CAN       -40.8021    6.2188  -14.9844 C.3         1 SY9       0.0127
      5 CAK       -41.6608    5.8804  -16.2496 C.3         1 SY9       0.0377
      6 NAH       -42.6564    4.9638  -15.8009 N.pl3       1 SY9      -0.2664
      7 CAA       -42.3477    3.7143  -16.2184 C.ar        1 SY9       0.0752
      8 CAF       -42.9307    2.4748  -15.8791 C.ar        1 SY9      -0.0107
      9 CAE       -42.4021    1.2877  -16.4250 C.ar        1 SY9      -0.0448
     10 CAD       -41.3033    1.3373  -17.3069 C.ar        1 SY9      -0.0454
     11 CAC       -40.7262    2.5750  -17.6522 C.ar        1 SY9      -0.0502
     12 CAB       -41.2481    3.7589  -17.0920 C.ar        1 SY9      -0.0229
     13 CAG       -40.8799    5.1559  -17.4000 C.3         1 SY9       0.0241
     14 CAW       -41.3996    5.5526  -18.8042 C.3         1 SY9      -0.0311
     15 CAX       -40.6915    6.8807  -19.1014 C.3         1 SY9      -0.0400
     16 NAY       -39.4220    6.8741  -18.3230 N.4         1 SY9       0.2407
     17 CAS       -39.1303    8.1472  -17.5776 C.3         1 SY9      -0.0074
     18 CAR       -39.6733    8.1373  -16.2092 C.2         1 SY9      -0.0310
     19 CAQ       -40.4115    9.1804  -15.7769 C.2         1 SY9      -0.0782
     20 CAP       -41.0977    9.2416  -14.5021 C.3         1 SY9       0.0552
     21 OAO       -42.1318    8.2293  -14.3734 O.3         1 SY9      -0.3712
     22 CAM       -41.6909    6.9379  -13.9287 C.3         1 SY9       0.0708
     23 CAL       -42.9217    6.0362  -13.5801 C.3         1 SY9       0.0233
     24 CAI       -43.6265    5.4089  -14.8260 C.3         1 SY9       0.1466
     25 OAJ       -44.5056    6.3655  -15.4158 O.3         1 SY9      -0.3686
     26 H1        -38.8259    4.8530  -18.0942 H           1 SY9       0.0728
     27 H2        -37.6304    6.1531  -16.3417 H           1 SY9       0.0333
     28 H3        -38.5910    4.8755  -15.6157 H           1 SY9       0.0333
     29 H4        -38.9010    7.1796  -14.4938 H           1 SY9       0.0453
     30 H5        -40.5226    5.2764  -14.4927 H           1 SY9       0.0364
     31 H6        -42.1335    6.7906  -16.6319 H           1 SY9       0.0464
     32 H7        -43.7237    2.4245  -15.2380 H           1 SY9       0.0603
     33 H8        -42.8173    0.3855  -16.1796 H           1 SY9       0.0812
     34 H9        -40.9306    0.4725  -17.7054 H           1 SY9       0.0608
     35 H10       -39.9513    2.6105  -18.3178 H           1 SY9       0.0786
     36 H11       -42.4848    5.6702  -18.8368 H           1 SY9       0.0203
     37 H12       -41.1053    4.8113  -19.5528 H           1 SY9       0.0203
     38 H13       -41.3506    7.7033  -18.8163 H           1 SY9       0.0805
     39 H14       -40.4809    6.9677  -20.1676 H           1 SY9       0.0805
     40 H15       -38.6720    6.8015  -19.0063 H           1 SY9       0.2039
     41 H16       -38.0457    8.2375  -17.4982 H           1 SY9       0.0964
     42 H17       -39.4502    9.0104  -18.1693 H           1 SY9       0.0964
     43 H18       -40.5251    9.9666  -16.3765 H           1 SY9       0.0266
     44 H19       -41.5923   10.2025  -14.4413 H           1 SY9       0.0635
     45 H20       -40.3748    9.2201  -13.6856 H           1 SY9       0.0635
     46 H21       -41.1197    7.0588  -13.0111 H           1 SY9       0.0604
     47 H22       -43.6472    6.6110  -12.9965 H           1 SY9       0.0338
     48 H23       -42.5750    5.2154  -12.9452 H           1 SY9       0.0338
     49 H24       -44.2542    4.5835  -14.4987 H           1 SY9       0.0886
     50 H25       -44.0067    7.2090  -15.4262 H           1 SY9       0.2123
@<TRIPOS>BOND
     1     1     2   1
     2     1    13   1
     3     1    16   1
     4     2     3   1
     5     3     4   1
     6     3    18   1
     7     4     5   1
     8     4    22   1
     9     5     6   1
    10     5    13   1
    11     6     7   1
    12     6    24   1
    13     7     8  ar
    14     7    12  ar
    15     8     9  ar
    16     9    10  ar
    17    10    11  ar
    18    11    12  ar
    19    12    13   1
    20    13    14   1
    21    14    15   1
    22    15    16   1
    23    16    17   1
    24    17    18   1
    25    18    19   2
    26    19    20   1
    27    20    21   1
    28    21    22   1
    29    22    23   1
    30    23    24   1
    31    24    25   1
    32     1    26   1
    33     2    27   1
    34     2    28   1
    35     3    29   1
    36     4    30   1
    37     5    31   1
    38     8    32   1
    39     9    33   1
    40    10    34   1
    41    11    35   1
    42    14    36   1
    43    14    37   1
    44    15    38   1
    45    15    39   1
    46    16    40   1
    47    17    41   1
    48    17    42   1
    49    19    43   1
    50    20    44   1
    51    20    45   1
    52    22    46   1
    53    23    47   1
    54    23    48   1
    55    24    49   1
    56    25    50   1
@<TRIPOS>SUBSTRUCTURE
     1  SY9      1

