@<TRIPOS>MOLECULE
2xys_ligand_054
    50    56
SMALL
GAST_HUCK
****
This file was generated by PARSER (from files_GN.cpp)

@<TRIPOS>ATOM
      1 CAV       -42.8152    5.4155  -16.8717 C.3         1 SY9      -0.0392
      2 CAU       -42.9226    5.6138  -15.3338 C.3         1 SY9      -0.0074
      3 CAT       -41.5044    6.0468  -14.8354 C.3         1 SY9      -0.0009
      4 CAN       -41.2914    7.4992  -15.3647 C.3         1 SY9       0.0127
      5 CAK       -41.3701    7.6024  -16.9271 C.3         1 SY9       0.0377
      6 NAH       -41.7573    8.9555  -17.1877 N.pl3       1 SY9      -0.2664
      7 CAA       -42.9955    9.0127  -17.7189 C.ar        1 SY9       0.0752
      8 CAF       -43.8058   10.1388  -17.9842 C.ar        1 SY9      -0.0107
      9 CAE       -45.0973    9.9481  -18.5111 C.ar        1 SY9      -0.0448
     10 CAD       -45.5750    8.6454  -18.7589 C.ar        1 SY9      -0.0454
     11 CAC       -44.7645    7.5266  -18.4826 C.ar        1 SY9      -0.0502
     12 CAB       -43.4719    7.7183  -17.9549 C.ar        1 SY9      -0.0229
     13 CAG       -42.4323    6.7108  -17.6589 C.3         1 SY9       0.0241
     14 CAW       -41.8628    6.1127  -18.9684 C.3         1 SY9      -0.0311
     15 CAX       -41.0873    4.8806  -18.4738 C.3         1 SY9      -0.0400
     16 NAY       -41.7609    4.4067  -17.2311 N.4         1 SY9       0.2407
     17 CAS       -40.8246    3.9875  -16.1333 C.3         1 SY9      -0.0074
     18 CAR       -40.4437    5.1086  -15.2641 C.2         1 SY9      -0.0310
     19 CAQ       -39.1575    5.2603  -14.8918 C.2         1 SY9      -0.0782
     20 CAP       -38.6566    6.3863  -14.1343 C.3         1 SY9       0.0552
     21 OAO       -38.7873    7.5936  -14.9043 O.3         1 SY9      -0.3712
     22 CAM       -40.0450    8.3073  -14.8740 C.3         1 SY9       0.0708
     23 CAL       -39.8433    9.6143  -15.7247 C.3         1 SY9       0.0233
     24 CAI       -41.0578   10.0653  -16.5932 C.3         1 SY9       0.1466
     25 OAJ       -40.6556   10.9581  -17.6320 O.3         1 SY9      -0.3686
     26 H1        -43.7769    5.0372  -17.2325 H           1 SY9       0.0728
     27 H2        -43.2237    4.6783  -14.8531 H           1 SY9       0.0333
     28 H3        -43.6925    6.3543  -15.0950 H           1 SY9       0.0333
     29 H4        -41.5372    6.0653  -13.7405 H           1 SY9       0.0453
     30 H5        -42.1426    8.0598  -14.9515 H           1 SY9       0.0364
     31 H6        -40.3747    7.4187  -17.3426 H           1 SY9       0.0464
     32 H7        -43.4681   11.0848  -17.7933 H           1 SY9       0.0603
     33 H8        -45.6891   10.7572  -18.7115 H           1 SY9       0.0812
     34 H9        -46.5116    8.5121  -19.1464 H           1 SY9       0.0608
     35 H10       -45.1134    6.5862  -18.6706 H           1 SY9       0.0786
     36 H11       -41.2184    6.8091  -19.5158 H           1 SY9       0.0203
     37 H12       -42.6670    5.8026  -19.6398 H           1 SY9       0.0203
     38 H13       -40.0436    5.1632  -18.2977 H           1 SY9       0.0805
     39 H14       -41.1001    4.0922  -19.2245 H           1 SY9       0.0805
     40 H15       -42.2635    3.5533  -17.4773 H           1 SY9       0.2039
     41 H16       -39.9648    3.4594  -16.5587 H           1 SY9       0.0964
     42 H17       -41.3450    3.2557  -15.5113 H           1 SY9       0.0964
     43 H18       -38.4880    4.5822  -15.1795 H           1 SY9       0.0266
     44 H19       -37.5921    6.2369  -13.9432 H           1 SY9       0.0635
     45 H20       -39.1516    6.4587  -13.1632 H           1 SY9       0.0635
     46 H21       -40.2299    8.6020  -13.8403 H           1 SY9       0.0604
     47 H22       -39.0156    9.4495  -16.4215 H           1 SY9       0.0338
     48 H23       -39.5623   10.4246  -15.0544 H           1 SY9       0.0338
     49 H24       -41.7504   10.5846  -15.9322 H           1 SY9       0.0886
     50 H25       -40.9325   11.8552  -17.3399 H           1 SY9       0.2123
@<TRIPOS>BOND
     1     1     2   1
     2     1    13   1
     3     1    16   1
     4     2     3   1
     5     3     4   1
     6     3    18   1
     7     4     5   1
     8     4    22   1
     9     5     6   1
    10     5    13   1
    11     6     7   1
    12     6    24   1
    13     7     8  ar
    14     7    12  ar
    15     8     9  ar
    16     9    10  ar
    17    10    11  ar
    18    11    12  ar
    19    12    13   1
    20    13    14   1
    21    14    15   1
    22    15    16   1
    23    16    17   1
    24    17    18   1
    25    18    19   2
    26    19    20   1
    27    20    21   1
    28    21    22   1
    29    22    23   1
    30    23    24   1
    31    24    25   1
    32     1    26   1
    33     2    27   1
    34     2    28   1
    35     3    29   1
    36     4    30   1
    37     5    31   1
    38     8    32   1
    39     9    33   1
    40    10    34   1
    41    11    35   1
    42    14    36   1
    43    14    37   1
    44    15    38   1
    45    15    39   1
    46    16    40   1
    47    17    41   1
    48    17    42   1
    49    19    43   1
    50    20    44   1
    51    20    45   1
    52    22    46   1
    53    23    47   1
    54    23    48   1
    55    24    49   1
    56    25    50   1
@<TRIPOS>SUBSTRUCTURE
     1  SY9      1

