@<TRIPOS>MOLECULE
2xys_ligand_008
    50    56
SMALL
GAST_HUCK
****
This file was generated by PARSER (from files_GN.cpp)

@<TRIPOS>ATOM
      1 CAV       -40.7575    8.2338  -17.6193 C.3         1 SY9      -0.0392
      2 CAU       -40.7474    7.0353  -18.6101 C.3         1 SY9      -0.0074
      3 CAT       -40.6548    5.7338  -17.7431 C.3         1 SY9      -0.0009
      4 CAN       -42.0461    5.6154  -17.0386 C.3         1 SY9       0.0127
      5 CAK       -42.2650    6.7831  -16.0171 C.3         1 SY9       0.0377
      6 NAH       -43.6646    6.7822  -15.7256 N.pl3       1 SY9      -0.2664
      7 CAA       -44.2681    7.8058  -16.3721 C.ar        1 SY9       0.0752
      8 CAF       -45.6379    8.1009  -16.5285 C.ar        1 SY9      -0.0107
      9 CAE       -46.0244    9.2279  -17.2819 C.ar        1 SY9      -0.0448
     10 CAD       -45.0513   10.0570  -17.8739 C.ar        1 SY9      -0.0454
     11 CAC       -43.6830    9.7676  -17.7198 C.ar        1 SY9      -0.0502
     12 CAB       -43.3004    8.6320  -16.9679 C.ar        1 SY9      -0.0229
     13 CAG       -41.9363    8.2100  -16.5842 C.3         1 SY9       0.0241
     14 CAW       -41.3719    9.1646  -15.5032 C.3         1 SY9      -0.0311
     15 CAX       -39.8790    8.8097  -15.4457 C.3         1 SY9      -0.0400
     16 NAY       -39.5102    8.2673  -16.7830 N.4         1 SY9       0.2407
     17 CAS       -38.6979    7.0014  -16.7539 C.3         1 SY9      -0.0074
     18 CAR       -39.5261    5.7834  -16.7809 C.2         1 SY9      -0.0310
     19 CAQ       -39.3013    4.7972  -15.8791 C.2         1 SY9      -0.0782
     20 CAP       -40.1146    3.6084  -15.6977 C.3         1 SY9       0.0552
     21 OAO       -41.4669    3.9191  -15.2910 O.3         1 SY9      -0.3712
     22 CAM       -42.3865    4.2580  -16.3517 C.3         1 SY9       0.0708
     23 CAL       -43.8566    4.3071  -15.8243 C.3         1 SY9       0.0233
     24 CAI       -44.2483    5.6244  -15.0813 C.3         1 SY9       0.1466
     25 OAJ       -43.8046    5.5524  -13.7253 O.3         1 SY9      -0.3686
     26 H1        -40.7982    9.1602  -18.2044 H           1 SY9       0.0728
     27 H2        -39.8844    7.1104  -19.2726 H           1 SY9       0.0333
     28 H3        -41.6346    7.0572  -19.2502 H           1 SY9       0.0333
     29 H4        -40.5229    4.8834  -18.4216 H           1 SY9       0.0453
     30 H5        -42.8023    5.7062  -17.8336 H           1 SY9       0.0364
     31 H6        -41.6903    6.5974  -15.1040 H           1 SY9       0.0464
     32 H7        -46.3513    7.5036  -16.1145 H           1 SY9       0.0603
     33 H8        -47.0143    9.4442  -17.3968 H           1 SY9       0.0812
     34 H9        -45.3389   10.8794  -18.4108 H           1 SY9       0.0608
     35 H10       -42.9768   10.3833  -18.1343 H           1 SY9       0.0786
     36 H11       -41.8616    9.0440  -14.5304 H           1 SY9       0.0203
     37 H12       -41.4740   10.2094  -15.8220 H           1 SY9       0.0203
     38 H13       -39.7152    8.0959  -14.6336 H           1 SY9       0.0805
     39 H14       -39.3024    9.7097  -15.2337 H           1 SY9       0.0805
     40 H15       -38.9070    8.9685  -17.2115 H           1 SY9       0.2039
     41 H16       -38.0759    6.9872  -17.6536 H           1 SY9       0.0964
     42 H17       -38.0015    7.0257  -15.9110 H           1 SY9       0.0964
     43 H18       -38.5293    4.8924  -15.2589 H           1 SY9       0.0266
     44 H19       -39.6828    3.0066  -14.8921 H           1 SY9       0.0635
     45 H20       -40.0849    2.9862  -16.5976 H           1 SY9       0.0635
     46 H21       -42.3453    3.4626  -17.1030 H           1 SY9       0.0604
     47 H22       -44.0391    3.4473  -15.1778 H           1 SY9       0.0338
     48 H23       -44.5202    4.2078  -16.6851 H           1 SY9       0.0338
     49 H24       -45.3387    5.6930  -15.0612 H           1 SY9       0.0886
     50 H25       -44.2184    6.3184  -13.2739 H           1 SY9       0.2123
@<TRIPOS>BOND
     1     1     2   1
     2     1    13   1
     3     1    16   1
     4     2     3   1
     5     3     4   1
     6     3    18   1
     7     4     5   1
     8     4    22   1
     9     5     6   1
    10     5    13   1
    11     6     7   1
    12     6    24   1
    13     7     8  ar
    14     7    12  ar
    15     8     9  ar
    16     9    10  ar
    17    10    11  ar
    18    11    12  ar
    19    12    13   1
    20    13    14   1
    21    14    15   1
    22    15    16   1
    23    16    17   1
    24    17    18   1
    25    18    19   2
    26    19    20   1
    27    20    21   1
    28    21    22   1
    29    22    23   1
    30    23    24   1
    31    24    25   1
    32     1    26   1
    33     2    27   1
    34     2    28   1
    35     3    29   1
    36     4    30   1
    37     5    31   1
    38     8    32   1
    39     9    33   1
    40    10    34   1
    41    11    35   1
    42    14    36   1
    43    14    37   1
    44    15    38   1
    45    15    39   1
    46    16    40   1
    47    17    41   1
    48    17    42   1
    49    19    43   1
    50    20    44   1
    51    20    45   1
    52    22    46   1
    53    23    47   1
    54    23    48   1
    55    24    49   1
    56    25    50   1
@<TRIPOS>SUBSTRUCTURE
     1  SY9      1

