@<TRIPOS>MOLECULE
2xys_ligand_052
    50    56
SMALL
GAST_HUCK
****
This file was generated by PARSER (from files_GN.cpp)

@<TRIPOS>ATOM
      1 CAV       -35.4829    3.4769  -16.6942 C.3         1 SY9      -0.0392
      2 CAU       -34.5160    4.6296  -16.3079 C.3         1 SY9      -0.0074
      3 CAT       -34.1402    4.4105  -14.8038 C.3         1 SY9      -0.0009
      4 CAN       -33.2313    3.1387  -14.7876 C.3         1 SY9       0.0127
      5 CAK       -34.0490    1.8669  -15.1955 C.3         1 SY9       0.0377
      6 NAH       -33.0790    0.8582  -15.4781 N.pl3       1 SY9      -0.2664
      7 CAA       -32.9752    0.6903  -16.8160 C.ar        1 SY9       0.0752
      8 CAF       -32.0364   -0.0492  -17.5663 C.ar        1 SY9      -0.0107
      9 CAE       -32.1136   -0.0421  -18.9729 C.ar        1 SY9      -0.0448
     10 CAD       -33.1241    0.6904  -19.6269 C.ar        1 SY9      -0.0454
     11 CAC       -34.0660    1.4208  -18.8768 C.ar        1 SY9      -0.0502
     12 CAB       -33.9744    1.4293  -17.4710 C.ar        1 SY9      -0.0229
     13 CAG       -34.9087    2.0311  -16.4979 C.3         1 SY9       0.0241
     14 CAW       -36.2293    1.2199  -16.4545 C.3         1 SY9      -0.0311
     15 CAX       -37.1887    2.1221  -15.6609 C.3         1 SY9      -0.0400
     16 NAY       -36.7340    3.5255  -15.8621 N.4         1 SY9       0.2407
     17 CAS       -36.6643    4.3463  -14.6015 C.3         1 SY9      -0.0074
     18 CAR       -35.3448    4.2712  -13.9466 C.2         1 SY9      -0.0310
     19 CAQ       -35.2675    3.9725  -12.6329 C.2         1 SY9      -0.0782
     20 CAP       -34.0430    3.7637  -11.8845 C.3         1 SY9       0.0552
     21 OAO       -33.2816    2.6287  -12.3433 O.3         1 SY9      -0.3712
     22 CAM       -32.4281    2.8467  -13.4845 C.3         1 SY9       0.0708
     23 CAL       -31.5114    1.5976  -13.7090 C.3         1 SY9       0.0233
     24 CAI       -32.2138    0.3932  -14.4143 C.3         1 SY9       0.1466
     25 OAJ       -32.9595   -0.3773  -13.4704 O.3         1 SY9      -0.3686
     26 H1        -35.7712    3.6127  -17.7377 H           1 SY9       0.0728
     27 H2        -35.0102    5.5953  -16.4431 H           1 SY9       0.0333
     28 H3        -33.6477    4.6307  -16.9670 H           1 SY9       0.0333
     29 H4        -33.5603    5.2769  -14.4716 H           1 SY9       0.0453
     30 H5        -32.4528    3.3068  -15.5424 H           1 SY9       0.0364
     31 H6        -34.6866    1.5516  -14.3631 H           1 SY9       0.0464
     32 H7        -31.2992   -0.5843  -17.1070 H           1 SY9       0.0603
     33 H8        -31.4360   -0.5754  -19.5232 H           1 SY9       0.0812
     34 H9        -33.1834    0.6781  -20.6472 H           1 SY9       0.0608
     35 H10       -34.8138    1.9285  -19.3527 H           1 SY9       0.0786
     36 H11       -36.1097    0.2393  -15.9824 H           1 SY9       0.0203
     37 H12       -36.6294    1.0724  -17.4639 H           1 SY9       0.0203
     38 H13       -37.1702    1.8193  -14.6082 H           1 SY9       0.0805
     39 H14       -38.2127    2.0176  -16.0265 H           1 SY9       0.0805
     40 H15       -37.4460    3.9745  -16.4443 H           1 SY9       0.2039
     41 H16       -36.8376    5.3897  -14.8757 H           1 SY9       0.0964
     42 H17       -37.4932    4.0799  -13.9381 H           1 SY9       0.0964
     43 H18       -36.1139    3.8609  -12.1242 H           1 SY9       0.0266
     44 H19       -34.3082    3.5391  -10.8517 H           1 SY9       0.0635
     45 H20       -33.4479    4.6819  -11.8694 H           1 SY9       0.0635
     46 H21       -31.7650    3.6942  -13.2729 H           1 SY9       0.0604
     47 H22       -31.0920    1.2720  -12.7534 H           1 SY9       0.0338
     48 H23       -30.6721    1.9020  -14.3410 H           1 SY9       0.0338
     49 H24       -31.4424   -0.2755  -14.7992 H           1 SY9       0.0886
     50 H25       -33.5436    0.2548  -13.0010 H           1 SY9       0.2123
@<TRIPOS>BOND
     1     1     2   1
     2     1    13   1
     3     1    16   1
     4     2     3   1
     5     3     4   1
     6     3    18   1
     7     4     5   1
     8     4    22   1
     9     5     6   1
    10     5    13   1
    11     6     7   1
    12     6    24   1
    13     7     8  ar
    14     7    12  ar
    15     8     9  ar
    16     9    10  ar
    17    10    11  ar
    18    11    12  ar
    19    12    13   1
    20    13    14   1
    21    14    15   1
    22    15    16   1
    23    16    17   1
    24    17    18   1
    25    18    19   2
    26    19    20   1
    27    20    21   1
    28    21    22   1
    29    22    23   1
    30    23    24   1
    31    24    25   1
    32     1    26   1
    33     2    27   1
    34     2    28   1
    35     3    29   1
    36     4    30   1
    37     5    31   1
    38     8    32   1
    39     9    33   1
    40    10    34   1
    41    11    35   1
    42    14    36   1
    43    14    37   1
    44    15    38   1
    45    15    39   1
    46    16    40   1
    47    17    41   1
    48    17    42   1
    49    19    43   1
    50    20    44   1
    51    20    45   1
    52    22    46   1
    53    23    47   1
    54    23    48   1
    55    24    49   1
    56    25    50   1
@<TRIPOS>SUBSTRUCTURE
     1  SY9      1

