@<TRIPOS>MOLECULE
2xys_ligand_002
    50    56
SMALL
GAST_HUCK
****
This file was generated by PARSER (from files_GN.cpp)

@<TRIPOS>ATOM
      1 CAV       -47.3555   -1.0102  -18.6435 C.3         1 SY9      -0.0392
      2 CAU       -48.8072   -0.5369  -18.9184 C.3         1 SY9      -0.0074
      3 CAT       -49.7346   -1.7802  -18.7243 C.3         1 SY9      -0.0009
      4 CAN       -49.7586   -2.0818  -17.1910 C.3         1 SY9       0.0127
      5 CAK       -48.3313   -2.3929  -16.6206 C.3         1 SY9       0.0377
      6 NAH       -48.4185   -2.0532  -15.2298 N.pl3       1 SY9      -0.2664
      7 CAA       -47.6524   -0.9741  -14.9523 C.ar        1 SY9       0.0752
      8 CAF       -47.5625   -0.2192  -13.7652 C.ar        1 SY9      -0.0107
      9 CAE       -46.7226    0.9108  -13.7227 C.ar        1 SY9      -0.0448
     10 CAD       -45.9693    1.2776  -14.8526 C.ar        1 SY9      -0.0454
     11 CAC       -46.0623    0.5214  -16.0400 C.ar        1 SY9      -0.0502
     12 CAB       -46.9209   -0.5953  -16.0877 C.ar        1 SY9      -0.0229
     13 CAG       -47.1275   -1.5505  -17.1937 C.3         1 SY9       0.0241
     14 CAW       -45.8529   -2.4030  -17.4060 C.3         1 SY9      -0.0311
     15 CAX       -46.0964   -3.0723  -18.7659 C.3         1 SY9      -0.0400
     16 NAY       -46.9474   -2.1349  -19.5532 N.4         1 SY9       0.2407
     17 CAS       -48.0553   -2.7986  -20.3260 C.3         1 SY9      -0.0074
     18 CAR       -49.2976   -2.9315  -19.5410 C.2         1 SY9      -0.0310
     19 CAQ       -49.9989   -4.0827  -19.5742 C.2         1 SY9      -0.0782
     20 CAP       -51.1769   -4.3521  -18.7680 C.3         1 SY9       0.0552
     21 OAO       -50.8358   -4.3762  -17.3736 O.3         1 SY9      -0.3712
     22 CAM       -50.7835   -3.1340  -16.6366 C.3         1 SY9       0.0708
     23 CAL       -50.4662   -3.5211  -15.1415 C.3         1 SY9       0.0233
     24 CAI       -49.4710   -2.5797  -14.3846 C.3         1 SY9       0.1466
     25 OAJ       -48.9020   -3.3020  -13.2960 O.3         1 SY9      -0.3686
     26 H1        -46.6796   -0.1700  -18.8367 H           1 SY9       0.0728
     27 H2        -48.8846   -0.1571  -19.9404 H           1 SY9       0.0333
     28 H3        -49.0738    0.2896  -18.2569 H           1 SY9       0.0333
     29 H4        -50.7377   -1.4814  -19.0451 H           1 SY9       0.0453
     30 H5        -50.0937   -1.1377  -16.7380 H           1 SY9       0.0364
     31 H6        -48.1297   -3.4642  -16.7307 H           1 SY9       0.0464
     32 H7        -48.1095   -0.4682  -12.9360 H           1 SY9       0.0603
     33 H8        -46.6569    1.4660  -12.8669 H           1 SY9       0.0812
     34 H9        -45.3429    2.0832  -14.8151 H           1 SY9       0.0608
     35 H10       -45.5041    0.7831  -16.8544 H           1 SY9       0.0786
     36 H11       -45.6912   -3.1358  -16.6113 H           1 SY9       0.0203
     37 H12       -44.9623   -1.7733  -17.4707 H           1 SY9       0.0203
     38 H13       -46.5828   -4.0409  -18.6030 H           1 SY9       0.0805
     39 H14       -45.1507   -3.2443  -19.2855 H           1 SY9       0.0805
     40 H15       -46.3292   -1.7237  -20.2576 H           1 SY9       0.2039
     41 H16       -47.7068   -3.7495  -20.7407 H           1 SY9       0.0964
     42 H17       -48.2799   -2.1646  -21.1871 H           1 SY9       0.0964
     43 H18       -49.6865   -4.8172  -20.1700 H           1 SY9       0.0266
     44 H19       -51.5555   -5.3462  -19.0215 H           1 SY9       0.0635
     45 H20       -51.9745   -3.6367  -18.9829 H           1 SY9       0.0635
     46 H21       -51.7846   -2.6870  -16.6689 H           1 SY9       0.0604
     47 H22       -50.0172   -4.5179  -15.1376 H           1 SY9       0.0338
     48 H23       -51.4008   -3.6098  -14.5748 H           1 SY9       0.0338
     49 H24       -50.0443   -1.7449  -13.9805 H           1 SY9       0.0886
     50 H25       -48.1730   -2.7315  -12.9619 H           1 SY9       0.2123
@<TRIPOS>BOND
     1     1     2   1
     2     1    13   1
     3     1    16   1
     4     2     3   1
     5     3     4   1
     6     3    18   1
     7     4     5   1
     8     4    22   1
     9     5     6   1
    10     5    13   1
    11     6     7   1
    12     6    24   1
    13     7     8  ar
    14     7    12  ar
    15     8     9  ar
    16     9    10  ar
    17    10    11  ar
    18    11    12  ar
    19    12    13   1
    20    13    14   1
    21    14    15   1
    22    15    16   1
    23    16    17   1
    24    17    18   1
    25    18    19   2
    26    19    20   1
    27    20    21   1
    28    21    22   1
    29    22    23   1
    30    23    24   1
    31    24    25   1
    32     1    26   1
    33     2    27   1
    34     2    28   1
    35     3    29   1
    36     4    30   1
    37     5    31   1
    38     8    32   1
    39     9    33   1
    40    10    34   1
    41    11    35   1
    42    14    36   1
    43    14    37   1
    44    15    38   1
    45    15    39   1
    46    16    40   1
    47    17    41   1
    48    17    42   1
    49    19    43   1
    50    20    44   1
    51    20    45   1
    52    22    46   1
    53    23    47   1
    54    23    48   1
    55    24    49   1
    56    25    50   1
@<TRIPOS>SUBSTRUCTURE
     1  SY9      1

