@<TRIPOS>MOLECULE
2xys_ligand_053
    50    56
SMALL
GAST_HUCK
****
This file was generated by PARSER (from files_GN.cpp)

@<TRIPOS>ATOM
      1 CAV       -34.7672    2.1285  -15.2496 C.3         1 SY9      -0.0392
      2 CAU       -33.6364    2.7505  -16.1121 C.3         1 SY9      -0.0074
      3 CAT       -32.6278    3.4190  -15.1156 C.3         1 SY9      -0.0009
      4 CAN       -31.9140    2.2316  -14.3973 C.3         1 SY9       0.0127
      5 CAK       -32.9222    1.4457  -13.4929 C.3         1 SY9       0.0377
      6 NAH       -32.2740    0.2109  -13.1869 N.pl3       1 SY9      -0.2664
      7 CAA       -32.8222   -0.7824  -13.9208 C.ar        1 SY9       0.0752
      8 CAF       -32.3911   -2.1127  -14.1005 C.ar        1 SY9      -0.0107
      9 CAE       -33.0926   -2.9574  -14.9823 C.ar        1 SY9      -0.0448
     10 CAD       -34.2204   -2.4787  -15.6758 C.ar        1 SY9      -0.0454
     11 CAC       -34.6633   -1.1546  -15.4847 C.ar        1 SY9      -0.0502
     12 CAB       -33.9510   -0.3091  -14.6103 C.ar        1 SY9      -0.0229
     13 CAG       -34.2747    1.0736  -14.2004 C.3         1 SY9       0.0241
     14 CAW       -35.4760    1.0831  -13.2231 C.3         1 SY9      -0.0311
     15 CAX       -35.9016    2.5597  -13.1654 C.3         1 SY9      -0.0400
     16 NAY       -35.4794    3.1833  -14.4506 N.4         1 SY9       0.2407
     17 CAS       -34.7624    4.5001  -14.2977 C.3         1 SY9      -0.0074
     18 CAR       -33.3005    4.3467  -14.1730 C.2         1 SY9      -0.0310
     19 CAQ       -32.6368    4.9669  -13.1733 C.2         1 SY9      -0.0782
     20 CAP       -31.2173    4.8268  -12.8961 C.3         1 SY9       0.0552
     21 OAO       -30.8545    3.4842  -12.5085 O.3         1 SY9      -0.3712
     22 CAM       -30.6228    2.5558  -13.5892 C.3         1 SY9       0.0708
     23 CAL       -30.0123    1.2211  -13.0469 C.3         1 SY9       0.0233
     24 CAI       -31.0437    0.2265  -12.4264 C.3         1 SY9       0.1466
     25 OAJ       -31.3193    0.6069  -11.0792 O.3         1 SY9      -0.3686
     26 H1        -35.4973    1.6683  -15.9225 H           1 SY9       0.0728
     27 H2        -34.0552    3.4983  -16.7922 H           1 SY9       0.0333
     28 H3        -33.1710    1.9815  -16.7358 H           1 SY9       0.0333
     29 H4        -31.8894    3.9769  -15.6966 H           1 SY9       0.0453
     30 H5        -31.5644    1.5584  -15.1921 H           1 SY9       0.0364
     31 H6        -33.1143    2.0056  -12.5711 H           1 SY9       0.0464
     32 H7        -31.5684   -2.4677  -13.6174 H           1 SY9       0.0603
     33 H8        -32.7787   -3.9213  -15.1205 H           1 SY9       0.0812
     34 H9        -34.7206   -3.0985  -16.3149 H           1 SY9       0.0608
     35 H10       -35.4943   -0.8187  -15.9754 H           1 SY9       0.0786
     36 H11       -35.2217    0.6945  -12.2327 H           1 SY9       0.0203
     37 H12       -36.3010    0.4924  -13.6278 H           1 SY9       0.0203
     38 H13       -35.4310    3.0345  -12.2985 H           1 SY9       0.0805
     39 H14       -36.9853    2.6433  -13.0504 H           1 SY9       0.0805
     40 H15       -36.3403    3.3952  -14.9613 H           1 SY9       0.2039
     41 H16       -34.9532    5.0860  -15.2001 H           1 SY9       0.0964
     42 H17       -35.2084    5.0715  -13.4794 H           1 SY9       0.0964
     43 H18       -33.1503    5.5561  -12.5568 H           1 SY9       0.0266
     44 H19       -30.9594    5.4698  -12.0531 H           1 SY9       0.0635
     45 H20       -30.6309    5.1848  -13.7480 H           1 SY9       0.0635
     46 H21       -29.8785    2.9887  -14.2668 H           1 SY9       0.0604
     47 H22       -29.2302    1.4449  -12.3164 H           1 SY9       0.0338
     48 H23       -29.5273    0.7105  -13.8855 H           1 SY9       0.0338
     49 H24       -30.5833   -0.7632  -12.3913 H           1 SY9       0.0886
     50 H25       -31.9070   -0.0954  -10.7260 H           1 SY9       0.2123
@<TRIPOS>BOND
     1     1     2   1
     2     1    13   1
     3     1    16   1
     4     2     3   1
     5     3     4   1
     6     3    18   1
     7     4     5   1
     8     4    22   1
     9     5     6   1
    10     5    13   1
    11     6     7   1
    12     6    24   1
    13     7     8  ar
    14     7    12  ar
    15     8     9  ar
    16     9    10  ar
    17    10    11  ar
    18    11    12  ar
    19    12    13   1
    20    13    14   1
    21    14    15   1
    22    15    16   1
    23    16    17   1
    24    17    18   1
    25    18    19   2
    26    19    20   1
    27    20    21   1
    28    21    22   1
    29    22    23   1
    30    23    24   1
    31    24    25   1
    32     1    26   1
    33     2    27   1
    34     2    28   1
    35     3    29   1
    36     4    30   1
    37     5    31   1
    38     8    32   1
    39     9    33   1
    40    10    34   1
    41    11    35   1
    42    14    36   1
    43    14    37   1
    44    15    38   1
    45    15    39   1
    46    16    40   1
    47    17    41   1
    48    17    42   1
    49    19    43   1
    50    20    44   1
    51    20    45   1
    52    22    46   1
    53    23    47   1
    54    23    48   1
    55    24    49   1
    56    25    50   1
@<TRIPOS>SUBSTRUCTURE
     1  SY9      1

