@<TRIPOS>MOLECULE
2xys_ligand_010
    50    56
SMALL
GAST_HUCK
****
This file was generated by PARSER (from files_GN.cpp)

@<TRIPOS>ATOM
      1 CAV       -46.9064   -2.4225  -18.0597 C.3         1 SY9      -0.0392
      2 CAU       -46.2521   -3.0861  -16.8198 C.3         1 SY9      -0.0074
      3 CAT       -46.7919   -2.3332  -15.5613 C.3         1 SY9      -0.0009
      4 CAN       -48.2920   -2.7467  -15.4128 C.3         1 SY9       0.0127
      5 CAK       -49.1478   -2.3671  -16.6717 C.3         1 SY9       0.0377
      6 NAH       -50.2428   -3.2979  -16.6511 N.pl3       1 SY9      -0.2664
      7 CAA       -50.1668   -4.1383  -17.7055 C.ar        1 SY9       0.0752
      8 CAF       -50.9451   -5.2773  -18.0015 C.ar        1 SY9      -0.0107
      9 CAE       -50.6517   -6.0418  -19.1477 C.ar        1 SY9      -0.0448
     10 CAD       -49.5895   -5.6697  -19.9956 C.ar        1 SY9      -0.0454
     11 CAC       -48.8133   -4.5315  -19.6995 C.ar        1 SY9      -0.0502
     12 CAB       -49.1023   -3.7769  -18.5415 C.ar        1 SY9      -0.0229
     13 CAG       -48.4667   -2.5242  -18.0839 C.3         1 SY9       0.0241
     14 CAW       -48.8107   -1.3683  -19.0578 C.3         1 SY9      -0.0311
     15 CAX       -47.8091   -0.2668  -18.6761 C.3         1 SY9      -0.0400
     16 NAY       -46.6000   -0.9513  -18.1372 N.4         1 SY9       0.2407
     17 CAS       -46.0253   -0.3240  -16.8960 C.3         1 SY9      -0.0074
     18 CAR       -46.5941   -0.8706  -15.6515 C.2         1 SY9      -0.0310
     19 CAQ       -46.9237   -0.0496  -14.6321 C.2         1 SY9      -0.0782
     20 CAP       -47.6003   -0.4718  -13.4201 C.3         1 SY9       0.0552
     21 OAO       -48.9156   -0.9446  -13.7438 O.3         1 SY9      -0.3712
     22 CAM       -49.0754   -2.3331  -14.1153 C.3         1 SY9       0.0708
     23 CAL       -50.6234   -2.5745  -14.2725 C.3         1 SY9       0.0233
     24 CAI       -51.0363   -3.5064  -15.4557 C.3         1 SY9       0.1466
     25 OAJ       -52.4189   -3.3345  -15.7315 O.3         1 SY9      -0.3686
     26 H1        -46.4925   -2.8923  -18.9572 H           1 SY9       0.0728
     27 H2        -45.1671   -2.9912  -16.8829 H           1 SY9       0.0333
     28 H3        -46.4765   -4.1576  -16.7957 H           1 SY9       0.0333
     29 H4        -46.2360   -2.7099  -14.6973 H           1 SY9       0.0453
     30 H5        -48.2578   -3.8451  -15.3501 H           1 SY9       0.0364
     31 H6        -49.5279   -1.3441  -16.5547 H           1 SY9       0.0464
     32 H7        -51.7134   -5.5574  -17.3892 H           1 SY9       0.0603
     33 H8        -51.2112   -6.8690  -19.3647 H           1 SY9       0.0812
     34 H9        -49.3848   -6.2216  -20.8297 H           1 SY9       0.0608
     35 H10       -48.0559   -4.2548  -20.3278 H           1 SY9       0.0786
     36 H11       -49.8459   -1.0269  -18.9653 H           1 SY9       0.0203
     37 H12       -48.6360   -1.6624  -20.0978 H           1 SY9       0.0203
     38 H13       -48.2739    0.3971  -17.9423 H           1 SY9       0.0805
     39 H14       -47.5355    0.3278  -19.5529 H           1 SY9       0.0805
     40 H15       -45.8767   -0.8530  -18.8549 H           1 SY9       0.2039
     41 H16       -46.1024    0.7655  -16.9580 H           1 SY9       0.0964
     42 H17       -44.9547   -0.5416  -16.8868 H           1 SY9       0.0964
     43 H18       -46.7351    0.9237  -14.7231 H           1 SY9       0.0266
     44 H19       -47.7207    0.3888  -12.7603 H           1 SY9       0.0635
     45 H20       -47.0165   -1.2168  -12.8741 H           1 SY9       0.0635
     46 H21       -48.7176   -2.9510  -13.2843 H           1 SY9       0.0604
     47 H22       -51.1158   -1.6135  -14.4382 H           1 SY9       0.0338
     48 H23       -51.0323   -2.9841  -13.3431 H           1 SY9       0.0338
     49 H24       -50.8958   -4.5418  -15.1195 H           1 SY9       0.0886
     50 H25       -52.4896   -2.4536  -16.1669 H           1 SY9       0.2123
@<TRIPOS>BOND
     1     1     2   1
     2     1    13   1
     3     1    16   1
     4     2     3   1
     5     3     4   1
     6     3    18   1
     7     4     5   1
     8     4    22   1
     9     5     6   1
    10     5    13   1
    11     6     7   1
    12     6    24   1
    13     7     8  ar
    14     7    12  ar
    15     8     9  ar
    16     9    10  ar
    17    10    11  ar
    18    11    12  ar
    19    12    13   1
    20    13    14   1
    21    14    15   1
    22    15    16   1
    23    16    17   1
    24    17    18   1
    25    18    19   2
    26    19    20   1
    27    20    21   1
    28    21    22   1
    29    22    23   1
    30    23    24   1
    31    24    25   1
    32     1    26   1
    33     2    27   1
    34     2    28   1
    35     3    29   1
    36     4    30   1
    37     5    31   1
    38     8    32   1
    39     9    33   1
    40    10    34   1
    41    11    35   1
    42    14    36   1
    43    14    37   1
    44    15    38   1
    45    15    39   1
    46    16    40   1
    47    17    41   1
    48    17    42   1
    49    19    43   1
    50    20    44   1
    51    20    45   1
    52    22    46   1
    53    23    47   1
    54    23    48   1
    55    24    49   1
    56    25    50   1
@<TRIPOS>SUBSTRUCTURE
     1  SY9      1

