@<TRIPOS>MOLECULE
2xys_ligand_038
    50    56
SMALL
GAST_HUCK
****
This file was generated by PARSER (from files_GN.cpp)

@<TRIPOS>ATOM
      1 CAV       -44.1103    6.6072  -15.0581 C.3         1 SY9      -0.0392
      2 CAU       -43.3727    7.3457  -13.9105 C.3         1 SY9      -0.0074
      3 CAT       -41.8768    7.4746  -14.3526 C.3         1 SY9      -0.0009
      4 CAN       -41.8388    8.5278  -15.5016 C.3         1 SY9       0.0127
      5 CAK       -42.7247    8.1090  -16.7236 C.3         1 SY9       0.0377
      6 NAH       -43.0756    9.3474  -17.3547 N.pl3       1 SY9      -0.2664
      7 CAA       -44.4052    9.5624  -17.2510 C.ar        1 SY9       0.0752
      8 CAF       -45.1466   10.7018  -17.6162 C.ar        1 SY9      -0.0107
      9 CAE       -46.5301   10.7479  -17.3566 C.ar        1 SY9      -0.0448
     10 CAD       -47.1695    9.6504  -16.7491 C.ar        1 SY9      -0.0454
     11 CAC       -46.4310    8.5025  -16.4003 C.ar        1 SY9      -0.0502
     12 CAB       -45.0404    8.4757  -16.6400 C.ar        1 SY9      -0.0229
     13 CAG       -44.0856    7.3749  -16.4172 C.3         1 SY9       0.0241
     14 CAW       -44.3704    6.2143  -17.4015 C.3         1 SY9      -0.0311
     15 CAX       -43.5584    5.0484  -16.8183 C.3         1 SY9      -0.0400
     16 NAY       -43.5021    5.2642  -15.3487 N.4         1 SY9       0.2407
     17 CAS       -42.1592    4.9950  -14.7322 C.3         1 SY9      -0.0074
     18 CAR       -41.2811    6.1761  -14.7302 C.2         1 SY9      -0.0310
     19 CAQ       -39.9811    6.0619  -15.0666 C.2         1 SY9      -0.0782
     20 CAP       -39.0640    7.1791  -15.2015 C.3         1 SY9       0.0552
     21 OAO       -39.4737    8.0360  -16.2798 O.3         1 SY9      -0.3712
     22 CAM       -40.4574    9.0643  -16.0235 C.3         1 SY9       0.0708
     23 CAL       -40.6203    9.8776  -17.3656 C.3         1 SY9       0.0233
     24 CAI       -42.0809   10.3503  -17.6860 C.3         1 SY9       0.1466
     25 OAJ       -42.2313   10.7196  -19.0564 O.3         1 SY9      -0.3686
     26 H1        -45.1449    6.4369  -14.7475 H           1 SY9       0.0728
     27 H2        -43.4530    6.7637  -12.9882 H           1 SY9       0.0333
     28 H3        -43.8349    8.3183  -13.7133 H           1 SY9       0.0333
     29 H4        -41.3279    7.8762  -13.5015 H           1 SY9       0.0453
     30 H5        -42.2936    9.4149  -15.0447 H           1 SY9       0.0364
     31 H6        -42.1200    7.5052  -17.4094 H           1 SY9       0.0464
     32 H7        -44.6817   11.4900  -18.0643 H           1 SY9       0.0603
     33 H8        -47.0766   11.5745  -17.6104 H           1 SY9       0.0812
     34 H9        -48.1746    9.6874  -16.5702 H           1 SY9       0.0608
     35 H10       -46.9048    7.6994  -15.9842 H           1 SY9       0.0786
     36 H11       -44.0690    6.4516  -18.4252 H           1 SY9       0.0203
     37 H12       -45.4324    5.9456  -17.4036 H           1 SY9       0.0203
     38 H13       -42.5645    5.0401  -17.2776 H           1 SY9       0.0805
     39 H14       -44.0454    4.0937  -17.0264 H           1 SY9       0.0805
     40 H15       -44.1333    4.5723  -14.9387 H           1 SY9       0.2039
     41 H16       -41.6971    4.1167  -15.1954 H           1 SY9       0.0964
     42 H17       -42.3430    4.7259  -13.6919 H           1 SY9       0.0964
     43 H18       -39.6187    5.1587  -15.2763 H           1 SY9       0.0266
     44 H19       -38.0761    6.7963  -15.4662 H           1 SY9       0.0635
     45 H20       -38.9555    7.7232  -14.2592 H           1 SY9       0.0635
     46 H21       -40.0440    9.7404  -15.2648 H           1 SY9       0.0604
     47 H22       -40.2975    9.2444  -18.1976 H           1 SY9       0.0338
     48 H23       -39.9503   10.7414  -17.3552 H           1 SY9       0.0338
     49 H24       -42.2781   11.2448  -17.0878 H           1 SY9       0.0886
     50 H25       -41.7178   11.5470  -19.1736 H           1 SY9       0.2123
@<TRIPOS>BOND
     1     1     2   1
     2     1    13   1
     3     1    16   1
     4     2     3   1
     5     3     4   1
     6     3    18   1
     7     4     5   1
     8     4    22   1
     9     5     6   1
    10     5    13   1
    11     6     7   1
    12     6    24   1
    13     7     8  ar
    14     7    12  ar
    15     8     9  ar
    16     9    10  ar
    17    10    11  ar
    18    11    12  ar
    19    12    13   1
    20    13    14   1
    21    14    15   1
    22    15    16   1
    23    16    17   1
    24    17    18   1
    25    18    19   2
    26    19    20   1
    27    20    21   1
    28    21    22   1
    29    22    23   1
    30    23    24   1
    31    24    25   1
    32     1    26   1
    33     2    27   1
    34     2    28   1
    35     3    29   1
    36     4    30   1
    37     5    31   1
    38     8    32   1
    39     9    33   1
    40    10    34   1
    41    11    35   1
    42    14    36   1
    43    14    37   1
    44    15    38   1
    45    15    39   1
    46    16    40   1
    47    17    41   1
    48    17    42   1
    49    19    43   1
    50    20    44   1
    51    20    45   1
    52    22    46   1
    53    23    47   1
    54    23    48   1
    55    24    49   1
    56    25    50   1
@<TRIPOS>SUBSTRUCTURE
     1  SY9      1

