@<TRIPOS>MOLECULE
2xys_ligand_063
    50    56
SMALL
GAST_HUCK
****
This file was generated by PARSER (from files_GN.cpp)

@<TRIPOS>ATOM
      1 CAV       -43.9793    5.3619  -15.5506 C.3         1 SY9      -0.0392
      2 CAU       -44.3071    5.4672  -17.0648 C.3         1 SY9      -0.0074
      3 CAT       -43.8620    6.8962  -17.5248 C.3         1 SY9      -0.0009
      4 CAN       -42.3023    6.8695  -17.4840 C.3         1 SY9       0.0127
      5 CAK       -41.7815    6.7298  -16.0151 C.3         1 SY9       0.0377
      6 NAH       -40.4036    6.3721  -16.1309 N.pl3       1 SY9      -0.2664
      7 CAA       -40.2540    5.0533  -15.8638 C.ar        1 SY9       0.0752
      8 CAF       -39.1301    4.2174  -16.0253 C.ar        1 SY9      -0.0107
      9 CAE       -39.2313    2.8479  -15.7046 C.ar        1 SY9      -0.0448
     10 CAD       -40.4492    2.3166  -15.2322 C.ar        1 SY9      -0.0454
     11 CAC       -41.5709    3.1504  -15.0727 C.ar        1 SY9      -0.0502
     12 CAB       -41.4662    4.5163  -15.3954 C.ar        1 SY9      -0.0229
     13 CAG       -42.4703    5.5814  -15.1941 C.3         1 SY9       0.0241
     14 CAW       -42.5942    5.9264  -13.6896 C.3         1 SY9      -0.0311
     15 CAX       -43.8559    6.8023  -13.6163 C.3         1 SY9      -0.0400
     16 NAY       -44.7223    6.4041  -14.7639 N.4         1 SY9       0.2407
     17 CAS       -45.3037    7.5509  -15.5515 C.3         1 SY9      -0.0074
     18 CAR       -44.4482    7.9639  -16.6796 C.2         1 SY9      -0.0310
     19 CAQ       -44.1580    9.2705  -16.8507 C.2         1 SY9      -0.0782
     20 CAP       -43.2222    9.8114  -17.8204 C.3         1 SY9       0.0552
     21 OAO       -41.8712    9.3298  -17.6361 O.3         1 SY9      -0.3712
     22 CAM       -41.5588    8.0343  -18.1931 C.3         1 SY9       0.0708
     23 CAL       -40.0173    7.7720  -18.1388 C.3         1 SY9       0.0233
     24 CAI       -39.4840    7.3056  -16.7463 C.3         1 SY9       0.1466
     25 OAJ       -39.2787    8.4286  -15.8872 O.3         1 SY9      -0.3686
     26 H1        -44.3042    4.3776  -15.1983 H           1 SY9       0.0728
     27 H2        -45.3786    5.3260  -17.2339 H           1 SY9       0.0333
     28 H3        -43.7925    4.6731  -17.6084 H           1 SY9       0.0333
     29 H4        -44.1940    7.0371  -18.5572 H           1 SY9       0.0453
     30 H5        -41.9938    5.9754  -18.0445 H           1 SY9       0.0364
     31 H6        -41.8824    7.6867  -15.4908 H           1 SY9       0.0464
     32 H7        -38.2453    4.5860  -16.3790 H           1 SY9       0.0603
     33 H8        -38.4191    2.2408  -15.8146 H           1 SY9       0.0812
     34 H9        -40.5116    1.3272  -14.9867 H           1 SY9       0.0608
     35 H10       -42.4435    2.7670  -14.7049 H           1 SY9       0.0786
     36 H11       -41.7122    6.4458  -13.3028 H           1 SY9       0.0203
     37 H12       -42.7544    5.0202  -13.0976 H           1 SY9       0.0203
     38 H13       -43.5622    7.8556  -13.6606 H           1 SY9       0.0805
     39 H14       -44.3814    6.6341  -12.6742 H           1 SY9       0.0805
     40 H15       -45.5267    5.9245  -14.3615 H           1 SY9       0.2039
     41 H16       -46.2540    7.2136  -15.9738 H           1 SY9       0.0964
     42 H17       -45.5607    8.3750  -14.8770 H           1 SY9       0.0964
     43 H18       -44.6097    9.9331  -16.2608 H           1 SY9       0.0266
     44 H19       -43.1759   10.8957  -17.6909 H           1 SY9       0.0635
     45 H20       -43.5957    9.6272  -18.8311 H           1 SY9       0.0635
     46 H21       -41.8412    8.0229  -19.2481 H           1 SY9       0.0604
     47 H22       -39.4802    8.6686  -18.4614 H           1 SY9       0.0338
     48 H23       -39.7836    6.9812  -18.8584 H           1 SY9       0.0338
     49 H24       -38.5006    6.8559  -16.8878 H           1 SY9       0.0886
     50 H25       -40.1330    8.9060  -15.8532 H           1 SY9       0.2123
@<TRIPOS>BOND
     1     1     2   1
     2     1    13   1
     3     1    16   1
     4     2     3   1
     5     3     4   1
     6     3    18   1
     7     4     5   1
     8     4    22   1
     9     5     6   1
    10     5    13   1
    11     6     7   1
    12     6    24   1
    13     7     8  ar
    14     7    12  ar
    15     8     9  ar
    16     9    10  ar
    17    10    11  ar
    18    11    12  ar
    19    12    13   1
    20    13    14   1
    21    14    15   1
    22    15    16   1
    23    16    17   1
    24    17    18   1
    25    18    19   2
    26    19    20   1
    27    20    21   1
    28    21    22   1
    29    22    23   1
    30    23    24   1
    31    24    25   1
    32     1    26   1
    33     2    27   1
    34     2    28   1
    35     3    29   1
    36     4    30   1
    37     5    31   1
    38     8    32   1
    39     9    33   1
    40    10    34   1
    41    11    35   1
    42    14    36   1
    43    14    37   1
    44    15    38   1
    45    15    39   1
    46    16    40   1
    47    17    41   1
    48    17    42   1
    49    19    43   1
    50    20    44   1
    51    20    45   1
    52    22    46   1
    53    23    47   1
    54    23    48   1
    55    24    49   1
    56    25    50   1
@<TRIPOS>SUBSTRUCTURE
     1  SY9      1

