@<TRIPOS>MOLECULE
2xys_ligand_082
    50    56
SMALL
GAST_HUCK
****
This file was generated by PARSER (from files_GN.cpp)

@<TRIPOS>ATOM
      1 CAV       -32.0278    3.4905  -14.8412 C.3         1 SY9      -0.0392
      2 CAU       -32.1789    2.0766  -15.4707 C.3         1 SY9      -0.0074
      3 CAT       -32.7322    1.1400  -14.3451 C.3         1 SY9      -0.0009
      4 CAN       -34.2072    1.6012  -14.1270 C.3         1 SY9       0.0127
      5 CAK       -34.2579    3.0454  -13.5249 C.3         1 SY9       0.0377
      6 NAH       -35.6030    3.4838  -13.7033 N.pl3       1 SY9      -0.2664
      7 CAA       -35.6705    4.3825  -14.7056 C.ar        1 SY9       0.0752
      8 CAF       -36.7981    4.9487  -15.3334 C.ar        1 SY9      -0.0107
      9 CAE       -36.6137    5.8501  -16.4017 C.ar        1 SY9      -0.0448
     10 CAD       -35.3133    6.1934  -16.8187 C.ar        1 SY9      -0.0454
     11 CAC       -34.1905    5.6205  -16.1939 C.ar        1 SY9      -0.0502
     12 CAB       -34.3754    4.7078  -15.1378 C.ar        1 SY9      -0.0229
     13 CAG       -33.3537    4.0947  -14.2616 C.3         1 SY9       0.0241
     14 CAW       -32.7717    5.1558  -13.2930 C.3         1 SY9      -0.0311
     15 CAX       -31.5386    4.4628  -12.6907 C.3         1 SY9      -0.0400
     16 NAY       -31.0627    3.4659  -13.6886 N.4         1 SY9       0.2407
     17 CAS       -30.7491    2.1084  -13.1088 C.3         1 SY9      -0.0074
     18 CAR       -31.9161    1.2041  -13.1092 C.2         1 SY9      -0.0310
     19 CAQ       -32.2598    0.5401  -11.9809 C.2         1 SY9      -0.0782
     20 CAP       -33.4436   -0.2859  -11.8079 C.3         1 SY9       0.0552
     21 OAO       -34.6691    0.4642  -11.9494 O.3         1 SY9      -0.3712
     22 CAM       -35.1330    0.6639  -13.3014 C.3         1 SY9       0.0708
     23 CAL       -36.5789    1.2600  -13.2868 C.3         1 SY9       0.0233
     24 CAI       -36.6609    2.7914  -13.0152 C.3         1 SY9       0.1466
     25 OAJ       -36.5243    3.0433  -11.6232 O.3         1 SY9      -0.3686
     26 H1        -31.6176    4.1641  -15.5982 H           1 SY9       0.0728
     27 H2        -31.2073    1.7185  -15.8220 H           1 SY9       0.0333
     28 H3        -32.8346    2.1149  -16.3447 H           1 SY9       0.0333
     29 H4        -32.7240    0.1138  -14.7249 H           1 SY9       0.0453
     30 H5        -34.6744    1.6233  -15.1206 H           1 SY9       0.0364
     31 H6        -34.0139    3.0117  -12.4571 H           1 SY9       0.0464
     32 H7        -37.7447    4.7157  -15.0280 H           1 SY9       0.0603
     33 H8        -37.4255    6.2650  -16.8662 H           1 SY9       0.0812
     34 H9        -35.1813    6.8847  -17.5591 H           1 SY9       0.0608
     35 H10       -33.2561    5.8872  -16.4972 H           1 SY9       0.0786
     36 H11       -33.4776    5.4582  -12.5134 H           1 SY9       0.0203
     37 H12       -32.4552    6.0475  -13.8425 H           1 SY9       0.0203
     38 H13       -31.8334    3.9870  -11.7523 H           1 SY9       0.0805
     39 H14       -30.7460    5.1852  -12.4784 H           1 SY9       0.0805
     40 H15       -30.1748    3.8253  -14.0509 H           1 SY9       0.2039
     41 H16       -29.9830    1.6522  -13.7411 H           1 SY9       0.0964
     42 H17       -30.2830    2.2184  -12.1231 H           1 SY9       0.0964
     43 H18       -31.6756    0.6351  -11.1819 H           1 SY9       0.0266
     44 H19       -33.4497   -0.6818  -10.7901 H           1 SY9       0.0635
     45 H20       -33.4101   -1.1488  -12.4797 H           1 SY9       0.0635
     46 H21       -35.1911   -0.3059  -13.8046 H           1 SY9       0.0604
     47 H22       -37.1929    0.7215  -12.5587 H           1 SY9       0.0338
     48 H23       -37.0118    1.0884  -14.2756 H           1 SY9       0.0338
     49 H24       -37.6455    3.1446  -13.3203 H           1 SY9       0.0886
     50 H25       -36.3704    4.0085  -11.5529 H           1 SY9       0.2123
@<TRIPOS>BOND
     1     1     2   1
     2     1    13   1
     3     1    16   1
     4     2     3   1
     5     3     4   1
     6     3    18   1
     7     4     5   1
     8     4    22   1
     9     5     6   1
    10     5    13   1
    11     6     7   1
    12     6    24   1
    13     7     8  ar
    14     7    12  ar
    15     8     9  ar
    16     9    10  ar
    17    10    11  ar
    18    11    12  ar
    19    12    13   1
    20    13    14   1
    21    14    15   1
    22    15    16   1
    23    16    17   1
    24    17    18   1
    25    18    19   2
    26    19    20   1
    27    20    21   1
    28    21    22   1
    29    22    23   1
    30    23    24   1
    31    24    25   1
    32     1    26   1
    33     2    27   1
    34     2    28   1
    35     3    29   1
    36     4    30   1
    37     5    31   1
    38     8    32   1
    39     9    33   1
    40    10    34   1
    41    11    35   1
    42    14    36   1
    43    14    37   1
    44    15    38   1
    45    15    39   1
    46    16    40   1
    47    17    41   1
    48    17    42   1
    49    19    43   1
    50    20    44   1
    51    20    45   1
    52    22    46   1
    53    23    47   1
    54    23    48   1
    55    24    49   1
    56    25    50   1
@<TRIPOS>SUBSTRUCTURE
     1  SY9      1

