@<TRIPOS>MOLECULE
2xys_ligand_019
    50    56
SMALL
GAST_HUCK
****
This file was generated by PARSER (from files_GN.cpp)

@<TRIPOS>ATOM
      1 CAV       -34.8848   -0.0381  -16.6456 C.3         1 SY9      -0.0392
      2 CAU       -34.6959   -0.3206  -15.1277 C.3         1 SY9      -0.0074
      3 CAT       -33.6042    0.6782  -14.6080 C.3         1 SY9      -0.0009
      4 CAN       -34.2953    2.0801  -14.6225 C.3         1 SY9       0.0127
      5 CAK       -34.6270    2.5221  -16.0833 C.3         1 SY9       0.0377
      6 NAH       -35.5639    3.5919  -15.9499 N.pl3       1 SY9      -0.2664
      7 CAA       -36.7985    3.1707  -16.3058 C.ar        1 SY9       0.0752
      8 CAF       -38.0386    3.8345  -16.1903 C.ar        1 SY9      -0.0107
      9 CAE       -39.2077    3.1911  -16.6273 C.ar        1 SY9      -0.0448
     10 CAD       -39.1404    1.8981  -17.1864 C.ar        1 SY9      -0.0454
     11 CAC       -37.8989    1.2388  -17.3097 C.ar        1 SY9      -0.0502
     12 CAB       -36.7303    1.8754  -16.8479 C.ar        1 SY9      -0.0229
     13 CAG       -35.3231    1.4340  -16.9778 C.3         1 SY9       0.0241
     14 CAW       -34.8765    1.5239  -18.4628 C.3         1 SY9      -0.0311
     15 CAX       -33.5465    0.7561  -18.5031 C.3         1 SY9      -0.0400
     16 NAY       -33.5939   -0.2411  -17.3945 N.4         1 SY9       0.2407
     17 CAS       -32.3367   -0.3009  -16.5611 C.3         1 SY9      -0.0074
     18 CAR       -32.3636    0.6319  -15.4181 C.2         1 SY9      -0.0310
     19 CAQ       -31.3146    1.4478  -15.1941 C.2         1 SY9      -0.0782
     20 CAP       -31.2582    2.4937  -14.1851 C.3         1 SY9       0.0552
     21 OAO       -32.2548    3.5175  -14.3989 O.3         1 SY9      -0.3712
     22 CAM       -33.5746    3.2420  -13.8774 C.3         1 SY9       0.0708
     23 CAL       -34.4642    4.5328  -13.9336 C.3         1 SY9       0.0233
     24 CAI       -35.1618    4.8210  -15.3037 C.3         1 SY9       0.1466
     25 OAJ       -34.3020    5.5384  -16.1863 O.3         1 SY9      -0.3686
     26 H1        -35.6212   -0.7441  -17.0343 H           1 SY9       0.0728
     27 H2        -34.3814   -1.3580  -14.9779 H           1 SY9       0.0333
     28 H3        -35.6457   -0.2021  -14.6001 H           1 SY9       0.0333
     29 H4        -33.3654    0.4009  -13.5761 H           1 SY9       0.0453
     30 H5        -35.2381    1.9610  -14.0713 H           1 SY9       0.0364
     31 H6        -33.7201    2.8860  -16.5692 H           1 SY9       0.0464
     32 H7        -38.0975    4.7715  -15.7913 H           1 SY9       0.0603
     33 H8        -40.1090    3.6634  -16.5412 H           1 SY9       0.0812
     34 H9        -39.9965    1.4409  -17.5102 H           1 SY9       0.0608
     35 H10       -37.8547    0.3115  -17.7337 H           1 SY9       0.0786
     36 H11       -34.7504    2.5565  -18.7940 H           1 SY9       0.0203
     37 H12       -35.5960    1.0305  -19.1252 H           1 SY9       0.0203
     38 H13       -32.7207    1.4678  -18.3958 H           1 SY9       0.0805
     39 H14       -33.4267    0.2425  -19.4599 H           1 SY9       0.0805
     40 H15       -33.6659   -1.1571  -17.8430 H           1 SY9       0.2039
     41 H16       -32.2622   -1.3115  -16.1545 H           1 SY9       0.0964
     42 H17       -31.4547   -0.1789  -17.2002 H           1 SY9       0.0964
     43 H18       -30.5093    1.3579  -15.7699 H           1 SY9       0.0266
     44 H19       -30.2884    2.9936  -14.2480 H           1 SY9       0.0635
     45 H20       -31.3183    2.0556  -13.1842 H           1 SY9       0.0635
     46 H21       -33.4745    2.9754  -12.8183 H           1 SY9       0.0604
     47 H22       -33.8707    5.3973  -13.6363 H           1 SY9       0.0338
     48 H23       -35.2527    4.4160  -13.1869 H           1 SY9       0.0338
     49 H24       -36.0159    5.4702  -15.1061 H           1 SY9       0.0886
     50 H25       -34.8316    5.7293  -16.9913 H           1 SY9       0.2123
@<TRIPOS>BOND
     1     1     2   1
     2     1    13   1
     3     1    16   1
     4     2     3   1
     5     3     4   1
     6     3    18   1
     7     4     5   1
     8     4    22   1
     9     5     6   1
    10     5    13   1
    11     6     7   1
    12     6    24   1
    13     7     8  ar
    14     7    12  ar
    15     8     9  ar
    16     9    10  ar
    17    10    11  ar
    18    11    12  ar
    19    12    13   1
    20    13    14   1
    21    14    15   1
    22    15    16   1
    23    16    17   1
    24    17    18   1
    25    18    19   2
    26    19    20   1
    27    20    21   1
    28    21    22   1
    29    22    23   1
    30    23    24   1
    31    24    25   1
    32     1    26   1
    33     2    27   1
    34     2    28   1
    35     3    29   1
    36     4    30   1
    37     5    31   1
    38     8    32   1
    39     9    33   1
    40    10    34   1
    41    11    35   1
    42    14    36   1
    43    14    37   1
    44    15    38   1
    45    15    39   1
    46    16    40   1
    47    17    41   1
    48    17    42   1
    49    19    43   1
    50    20    44   1
    51    20    45   1
    52    22    46   1
    53    23    47   1
    54    23    48   1
    55    24    49   1
    56    25    50   1
@<TRIPOS>SUBSTRUCTURE
     1  SY9      1

