@<TRIPOS>MOLECULE
2xys_ligand_086
    50    56
SMALL
GAST_HUCK
****
This file was generated by PARSER (from files_GN.cpp)

@<TRIPOS>ATOM
      1 CAV       -42.4272    6.1294  -14.2755 C.3         1 SY9      -0.0392
      2 CAU       -42.9070    4.8613  -15.0308 C.3         1 SY9      -0.0074
      3 CAT       -43.4918    5.3441  -16.4000 C.3         1 SY9      -0.0009
      4 CAN       -42.2703    5.8031  -17.2543 C.3         1 SY9       0.0127
      5 CAK       -41.4674    6.9680  -16.5802 C.3         1 SY9       0.0377
      6 NAH       -40.1466    6.8621  -17.1228 N.pl3       1 SY9      -0.2664
      7 CAA       -39.2648    6.4996  -16.1698 C.ar        1 SY9       0.0752
      8 CAF       -37.9113    6.1345  -16.3031 C.ar        1 SY9      -0.0107
      9 CAE       -37.1863    5.7449  -15.1652 C.ar        1 SY9      -0.0448
     10 CAD       -37.8027    5.7444  -13.9014 C.ar        1 SY9      -0.0454
     11 CAC       -39.1634    6.1088  -13.7733 C.ar        1 SY9      -0.0502
     12 CAB       -39.8961    6.4611  -14.9195 C.ar        1 SY9      -0.0229
     13 CAG       -41.2982    6.9201  -15.0169 C.3         1 SY9       0.0241
     14 CAW       -41.4573    8.3188  -14.3764 C.3         1 SY9      -0.0311
     15 CAX       -42.9793    8.4809  -14.2568 C.3         1 SY9      -0.0400
     16 NAY       -43.5457    7.1169  -14.0757 N.4         1 SY9       0.2407
     17 CAS       -44.7974    6.8748  -14.8715 C.3         1 SY9      -0.0074
     18 CAR       -44.5207    6.3980  -16.2301 C.2         1 SY9      -0.0310
     19 CAQ       -45.1883    6.9242  -17.2779 C.2         1 SY9      -0.0782
     20 CAP       -44.9249    6.5970  -18.6598 C.3         1 SY9       0.0552
     21 OAO       -43.6054    7.0227  -19.0356 O.3         1 SY9      -0.3712
     22 CAM       -42.4771    6.1606  -18.7689 C.3         1 SY9       0.0708
     23 CAL       -41.2199    6.8750  -19.3809 C.3         1 SY9       0.0233
     24 CAI       -39.9094    6.7724  -18.5436 C.3         1 SY9       0.1466
     25 OAJ       -38.9725    7.7724  -18.9414 O.3         1 SY9      -0.3686
     26 H1        -42.0738    5.8253  -13.2848 H           1 SY9       0.0728
     27 H2        -43.6759    4.3486  -14.4488 H           1 SY9       0.0333
     28 H3        -42.0799    4.1560  -15.1555 H           1 SY9       0.0333
     29 H4        -43.9545    4.4776  -16.8799 H           1 SY9       0.0453
     30 H5        -41.6139    4.9200  -17.2848 H           1 SY9       0.0364
     31 H6        -41.9117    7.9235  -16.8811 H           1 SY9       0.0464
     32 H7        -37.4538    6.1452  -17.2166 H           1 SY9       0.0603
     33 H8        -36.2022    5.4724  -15.2535 H           1 SY9       0.0812
     34 H9        -37.2611    5.4896  -13.0752 H           1 SY9       0.0608
     35 H10       -39.6038    6.1182  -12.8549 H           1 SY9       0.0786
     36 H11       -41.0065    9.1196  -14.9692 H           1 SY9       0.0203
     37 H12       -41.0163    8.3350  -13.3825 H           1 SY9       0.0203
     38 H13       -43.3507    8.9641  -15.1667 H           1 SY9       0.0805
     39 H14       -43.2471    9.1128  -13.4085 H           1 SY9       0.0805
     40 H15       -43.8212    7.0473  -13.0932 H           1 SY9       0.2039
     41 H16       -45.4313    7.7691  -14.8514 H           1 SY9       0.0964
     42 H17       -45.3662    6.0944  -14.3658 H           1 SY9       0.0964
     43 H18       -45.8985    7.6019  -17.1058 H           1 SY9       0.0266
     44 H19       -45.6248    7.1392  -19.3007 H           1 SY9       0.0635
     45 H20       -45.0887    5.5316  -18.8327 H           1 SY9       0.0635
     46 H21       -42.6214    5.2286  -19.3171 H           1 SY9       0.0604
     47 H22       -41.4382    7.9392  -19.4628 H           1 SY9       0.0338
     48 H23       -41.0320    6.4994  -20.3895 H           1 SY9       0.0338
     49 H24       -39.4759    5.7931  -18.7507 H           1 SY9       0.0886
     50 H25       -39.3146    8.6118  -18.5691 H           1 SY9       0.2123
@<TRIPOS>BOND
     1     1     2   1
     2     1    13   1
     3     1    16   1
     4     2     3   1
     5     3     4   1
     6     3    18   1
     7     4     5   1
     8     4    22   1
     9     5     6   1
    10     5    13   1
    11     6     7   1
    12     6    24   1
    13     7     8  ar
    14     7    12  ar
    15     8     9  ar
    16     9    10  ar
    17    10    11  ar
    18    11    12  ar
    19    12    13   1
    20    13    14   1
    21    14    15   1
    22    15    16   1
    23    16    17   1
    24    17    18   1
    25    18    19   2
    26    19    20   1
    27    20    21   1
    28    21    22   1
    29    22    23   1
    30    23    24   1
    31    24    25   1
    32     1    26   1
    33     2    27   1
    34     2    28   1
    35     3    29   1
    36     4    30   1
    37     5    31   1
    38     8    32   1
    39     9    33   1
    40    10    34   1
    41    11    35   1
    42    14    36   1
    43    14    37   1
    44    15    38   1
    45    15    39   1
    46    16    40   1
    47    17    41   1
    48    17    42   1
    49    19    43   1
    50    20    44   1
    51    20    45   1
    52    22    46   1
    53    23    47   1
    54    23    48   1
    55    24    49   1
    56    25    50   1
@<TRIPOS>SUBSTRUCTURE
     1  SY9      1

