@<TRIPOS>MOLECULE
2xys_ligand_073
    50    56
SMALL
GAST_HUCK
****
This file was generated by PARSER (from files_GN.cpp)

@<TRIPOS>ATOM
      1 CAV       -44.3393    7.2110  -16.2538 C.3         1 SY9      -0.0392
      2 CAU       -45.2949    8.3495  -15.8083 C.3         1 SY9      -0.0074
      3 CAT       -45.3242    9.3960  -16.9700 C.3         1 SY9      -0.0009
      4 CAN       -46.1197    8.7351  -18.1409 C.3         1 SY9       0.0127
      5 CAK       -45.4594    7.4038  -18.6353 C.3         1 SY9       0.0377
      6 NAH       -46.5411    6.6596  -19.2152 N.pl3       1 SY9      -0.2664
      7 CAA       -46.7948    5.5559  -18.4765 C.ar        1 SY9       0.0752
      8 CAF       -47.8384    4.6157  -18.6079 C.ar        1 SY9      -0.0107
      9 CAE       -47.9200    3.5408  -17.7017 C.ar        1 SY9      -0.0448
     10 CAD       -46.9742    3.4113  -16.6648 C.ar        1 SY9      -0.0454
     11 CAC       -45.9297    4.3477  -16.5386 C.ar        1 SY9      -0.0502
     12 CAB       -45.8535    5.4266  -17.4449 C.ar        1 SY9      -0.0229
     13 CAG       -44.8104    6.4683  -17.5459 C.3         1 SY9       0.0241
     14 CAW       -43.4627    5.8547  -18.0077 C.3         1 SY9      -0.0311
     15 CAX       -42.4365    6.9582  -17.7308 C.3         1 SY9      -0.0400
     16 NAY       -42.9572    7.7190  -16.5643 N.4         1 SY9       0.2407
     17 CAS       -42.8119    9.2065  -16.6996 C.3         1 SY9      -0.0074
     18 CAR       -43.9670    9.8348  -17.3640 C.2         1 SY9      -0.0310
     19 CAQ       -43.7741   10.7765  -18.3093 C.2         1 SY9      -0.0782
     20 CAP       -44.8366   11.3855  -19.0816 C.3         1 SY9       0.0552
     21 OAO       -45.4931   10.4487  -19.9408 O.3         1 SY9      -0.3712
     22 CAM       -46.5283    9.6037  -19.3850 C.3         1 SY9       0.0708
     23 CAL       -47.0467    8.7185  -20.5768 C.3         1 SY9       0.0233
     24 CAI       -47.4227    7.2432  -20.2100 C.3         1 SY9       0.1466
     25 OAJ       -47.4648    6.4143  -21.3764 O.3         1 SY9      -0.3686
     26 H1        -44.2513    6.4988  -15.4278 H           1 SY9       0.0728
     27 H2        -44.9239    8.8106  -14.8888 H           1 SY9       0.0333
     28 H3        -46.2877    7.9477  -15.5851 H           1 SY9       0.0333
     29 H4        -45.8837   10.2640  -16.6053 H           1 SY9       0.0453
     30 H5        -47.0854    8.4743  -17.6867 H           1 SY9       0.0364
     31 H6        -44.7217    7.6375  -19.4075 H           1 SY9       0.0464
     32 H7        -48.5316    4.7051  -19.3521 H           1 SY9       0.0603
     33 H8        -48.6702    2.8518  -17.7953 H           1 SY9       0.0812
     34 H9        -47.0421    2.6300  -16.0079 H           1 SY9       0.0608
     35 H10       -45.2314    4.2345  -15.8019 H           1 SY9       0.0786
     36 H11       -43.4589    5.5821  -19.0643 H           1 SY9       0.0203
     37 H12       -43.2073    4.9708  -17.4139 H           1 SY9       0.0203
     38 H13       -42.3339    7.5794  -18.6274 H           1 SY9       0.0805
     39 H14       -41.4585    6.5314  -17.4965 H           1 SY9       0.0805
     40 H15       -42.3707    7.4541  -15.7698 H           1 SY9       0.2039
     41 H16       -41.8575    9.4536  -17.1764 H           1 SY9       0.0964
     42 H17       -42.7472    9.6079  -15.6885 H           1 SY9       0.0964
     43 H18       -42.8474   11.0829  -18.5029 H           1 SY9       0.0266
     44 H19       -44.4101   12.1529  -19.7302 H           1 SY9       0.0635
     45 H20       -45.5554   11.8792  -18.4264 H           1 SY9       0.0635
     46 H21       -47.3488   10.2623  -19.0757 H           1 SY9       0.0604
     47 H22       -46.2625    8.6655  -21.3345 H           1 SY9       0.0338
     48 H23       -47.9028    9.2039  -21.0525 H           1 SY9       0.0338
     49 H24       -48.4321    7.2676  -19.7907 H           1 SY9       0.0886
     50 H25       -47.0924    6.9417  -22.1194 H           1 SY9       0.2123
@<TRIPOS>BOND
     1     1     2   1
     2     1    13   1
     3     1    16   1
     4     2     3   1
     5     3     4   1
     6     3    18   1
     7     4     5   1
     8     4    22   1
     9     5     6   1
    10     5    13   1
    11     6     7   1
    12     6    24   1
    13     7     8  ar
    14     7    12  ar
    15     8     9  ar
    16     9    10  ar
    17    10    11  ar
    18    11    12  ar
    19    12    13   1
    20    13    14   1
    21    14    15   1
    22    15    16   1
    23    16    17   1
    24    17    18   1
    25    18    19   2
    26    19    20   1
    27    20    21   1
    28    21    22   1
    29    22    23   1
    30    23    24   1
    31    24    25   1
    32     1    26   1
    33     2    27   1
    34     2    28   1
    35     3    29   1
    36     4    30   1
    37     5    31   1
    38     8    32   1
    39     9    33   1
    40    10    34   1
    41    11    35   1
    42    14    36   1
    43    14    37   1
    44    15    38   1
    45    15    39   1
    46    16    40   1
    47    17    41   1
    48    17    42   1
    49    19    43   1
    50    20    44   1
    51    20    45   1
    52    22    46   1
    53    23    47   1
    54    23    48   1
    55    24    49   1
    56    25    50   1
@<TRIPOS>SUBSTRUCTURE
     1  SY9      1

