@<TRIPOS>MOLECULE
2xys_ligand_087
    50    56
SMALL
GAST_HUCK
****
This file was generated by PARSER (from files_GN.cpp)

@<TRIPOS>ATOM
      1 CAV       -46.4268    7.4738  -16.9248 C.3         1 SY9      -0.0392
      2 CAU       -46.3447    8.2049  -15.5608 C.3         1 SY9      -0.0074
      3 CAT       -45.0072    7.7388  -14.8825 C.3         1 SY9      -0.0009
      4 CAN       -43.8657    8.4086  -15.7075 C.3         1 SY9       0.0127
      5 CAK       -43.8237    7.8206  -17.1539 C.3         1 SY9       0.0377
      6 NAH       -43.0333    8.7454  -17.8942 N.pl3       1 SY9      -0.2664
      7 CAA       -43.8423    9.5212  -18.6513 C.ar        1 SY9       0.0752
      8 CAF       -43.5574   10.6738  -19.4085 C.ar        1 SY9      -0.0107
      9 CAE       -44.5674   11.2262  -20.2211 C.ar        1 SY9      -0.0448
     10 CAD       -45.8605   10.6646  -20.2382 C.ar        1 SY9      -0.0454
     11 CAC       -46.1718    9.5839  -19.3998 C.ar        1 SY9      -0.0502
     12 CAB       -45.1495    9.0136  -18.6217 C.ar        1 SY9      -0.0229
     13 CAG       -45.2167    7.7561  -17.8692 C.3         1 SY9       0.0241
     14 CAW       -45.3347    6.5578  -18.8355 C.3         1 SY9      -0.0311
     15 CAX       -45.7233    5.3932  -17.9089 C.3         1 SY9      -0.0400
     16 NAY       -46.4437    5.9841  -16.7506 N.4         1 SY9       0.2407
     17 CAS       -45.9872    5.4656  -15.4157 C.3         1 SY9      -0.0074
     18 CAR       -44.8840    6.2585  -14.8370 C.2         1 SY9      -0.0310
     19 CAQ       -43.7754    5.6395  -14.3772 C.2         1 SY9      -0.0782
     20 CAP       -42.5879    6.3057  -13.8701 C.3         1 SY9       0.0552
     21 OAO       -41.9130    7.0876  -14.8764 O.3         1 SY9      -0.3712
     22 CAM       -42.4276    8.4157  -15.1014 C.3         1 SY9       0.0708
     23 CAL       -41.4601    9.2025  -16.0505 C.3         1 SY9       0.0233
     24 CAI       -41.6335    8.8795  -17.5676 C.3         1 SY9       0.1466
     25 OAJ       -40.9538    7.6640  -17.8804 O.3         1 SY9      -0.3686
     26 H1        -47.3581    7.7634  -17.4194 H           1 SY9       0.0728
     27 H2        -47.2120    7.9359  -14.9530 H           1 SY9       0.0333
     28 H3        -46.3924    9.2873  -15.7107 H           1 SY9       0.0333
     29 H4        -44.9843    8.1386  -13.8649 H           1 SY9       0.0453
     30 H5        -44.1275    9.4720  -15.7766 H           1 SY9       0.0364
     31 H6        -43.3520    6.8323  -17.1461 H           1 SY9       0.0464
     32 H7        -42.6230   11.0860  -19.4054 H           1 SY9       0.0603
     33 H8        -44.3590   12.0208  -20.8219 H           1 SY9       0.0812
     34 H9        -46.5695   11.0212  -20.8793 H           1 SY9       0.0608
     35 H10       -47.1092    9.1780  -19.4084 H           1 SY9       0.0786
     36 H11       -44.4010    6.3721  -19.3721 H           1 SY9       0.0203
     37 H12       -46.1324    6.7190  -19.5678 H           1 SY9       0.0203
     38 H13       -44.8126    4.8645  -17.6098 H           1 SY9       0.0805
     39 H14       -46.3826    4.6848  -18.4146 H           1 SY9       0.0805
     40 H15       -47.4211    5.6961  -16.8406 H           1 SY9       0.2039
     41 H16       -46.8398    5.5325  -14.7370 H           1 SY9       0.0964
     42 H17       -45.7571    4.3976  -15.4888 H           1 SY9       0.0964
     43 H18       -43.7465    4.6446  -14.3883 H           1 SY9       0.0266
     44 H19       -41.8695    5.5526  -13.5403 H           1 SY9       0.0635
     45 H20       -42.8462    6.9008  -12.9918 H           1 SY9       0.0635
     46 H21       -42.4456    8.9532  -14.1451 H           1 SY9       0.0604
     47 H22       -40.4240    9.0287  -15.7492 H           1 SY9       0.0338
     48 H23       -41.6447   10.2717  -15.9212 H           1 SY9       0.0338
     49 H24       -41.1550    9.6644  -18.1543 H           1 SY9       0.0886
     50 H25       -41.0726    7.5448  -18.8466 H           1 SY9       0.2123
@<TRIPOS>BOND
     1     1     2   1
     2     1    13   1
     3     1    16   1
     4     2     3   1
     5     3     4   1
     6     3    18   1
     7     4     5   1
     8     4    22   1
     9     5     6   1
    10     5    13   1
    11     6     7   1
    12     6    24   1
    13     7     8  ar
    14     7    12  ar
    15     8     9  ar
    16     9    10  ar
    17    10    11  ar
    18    11    12  ar
    19    12    13   1
    20    13    14   1
    21    14    15   1
    22    15    16   1
    23    16    17   1
    24    17    18   1
    25    18    19   2
    26    19    20   1
    27    20    21   1
    28    21    22   1
    29    22    23   1
    30    23    24   1
    31    24    25   1
    32     1    26   1
    33     2    27   1
    34     2    28   1
    35     3    29   1
    36     4    30   1
    37     5    31   1
    38     8    32   1
    39     9    33   1
    40    10    34   1
    41    11    35   1
    42    14    36   1
    43    14    37   1
    44    15    38   1
    45    15    39   1
    46    16    40   1
    47    17    41   1
    48    17    42   1
    49    19    43   1
    50    20    44   1
    51    20    45   1
    52    22    46   1
    53    23    47   1
    54    23    48   1
    55    24    49   1
    56    25    50   1
@<TRIPOS>SUBSTRUCTURE
     1  SY9      1

