@<TRIPOS>MOLECULE
2xys_ligand_041
    50    56
SMALL
GAST_HUCK
****
This file was generated by PARSER (from files_GN.cpp)

@<TRIPOS>ATOM
      1 CAV       -48.9083   -1.9684  -19.4838 C.3         1 SY9      -0.0392
      2 CAU       -49.9623   -2.2893  -18.3915 C.3         1 SY9      -0.0074
      3 CAT       -49.2563   -3.1945  -17.3301 C.3         1 SY9      -0.0009
      4 CAN       -48.2511   -2.2733  -16.5673 C.3         1 SY9       0.0127
      5 CAK       -47.1830   -1.6292  -17.5204 C.3         1 SY9       0.0377
      6 NAH       -46.7694   -0.4336  -16.8447 N.pl3       1 SY9      -0.2664
      7 CAA       -47.1658    0.6575  -17.5380 C.ar        1 SY9       0.0752
      8 CAF       -47.1032    2.0192  -17.1729 C.ar        1 SY9      -0.0107
      9 CAE       -47.6266    2.9952  -18.0451 C.ar        1 SY9      -0.0448
     10 CAD       -48.2118    2.6126  -19.2681 C.ar        1 SY9      -0.0454
     11 CAC       -48.2801    1.2525  -19.6253 C.ar        1 SY9      -0.0502
     12 CAB       -47.7614    0.2779  -18.7475 C.ar        1 SY9      -0.0229
     13 CAG       -47.6654   -1.1818  -18.9499 C.3         1 SY9       0.0241
     14 CAW       -46.6317   -1.5062  -20.0597 C.3         1 SY9      -0.0311
     15 CAX       -46.9060   -2.9835  -20.3816 C.3         1 SY9      -0.0400
     16 NAY       -48.3539   -3.2150  -20.1159 N.4         1 SY9       0.2407
     17 CAS       -48.6575   -4.5095  -19.4100 C.3         1 SY9      -0.0074
     18 CAR       -48.6198   -4.3811  -17.9428 C.2         1 SY9      -0.0310
     19 CAQ       -48.0128   -5.3266  -17.1944 C.2         1 SY9      -0.0782
     20 CAP       -47.8260   -5.2406  -15.7594 C.3         1 SY9       0.0552
     21 OAO       -46.9602   -4.1448  -15.4353 O.3         1 SY9      -0.3712
     22 CAM       -47.5300   -2.8248  -15.2866 C.3         1 SY9       0.0708
     23 CAL       -46.3545   -1.8876  -14.8332 C.3         1 SY9       0.0233
     24 CAI       -46.3551   -0.4496  -15.4560 C.3         1 SY9       0.1466
     25 OAJ       -45.0644    0.1469  -15.3108 O.3         1 SY9      -0.3686
     26 H1        -49.4017   -1.3911  -20.2722 H           1 SY9       0.0728
     27 H2        -50.8133   -2.8135  -18.8331 H           1 SY9       0.0333
     28 H3        -50.3466   -1.3656  -17.9551 H           1 SY9       0.0333
     29 H4        -50.0287   -3.5323  -16.6305 H           1 SY9       0.0453
     30 H5        -48.8805   -1.4599  -16.1759 H           1 SY9       0.0364
     31 H6        -46.3308   -2.3110  -17.6099 H           1 SY9       0.0464
     32 H7        -46.6875    2.3044  -16.2857 H           1 SY9       0.0603
     33 H8        -47.5821    3.9845  -17.7890 H           1 SY9       0.0812
     34 H9        -48.5818    3.3263  -19.9018 H           1 SY9       0.0608
     35 H10       -48.6867    0.9826  -20.5250 H           1 SY9       0.0786
     36 H11       -45.5990   -1.3491  -19.7366 H           1 SY9       0.0203
     37 H12       -46.8103   -0.9028  -20.9563 H           1 SY9       0.0203
     38 H13       -46.2625   -3.6090  -19.7540 H           1 SY9       0.0805
     39 H14       -46.6780   -3.2005  -21.4279 H           1 SY9       0.0805
     40 H15       -48.8003   -3.2912  -21.0337 H           1 SY9       0.2039
     41 H16       -48.0064   -5.3040  -19.7882 H           1 SY9       0.0964
     42 H17       -49.6732   -4.8024  -19.6859 H           1 SY9       0.0964
     43 H18       -47.6342   -6.1271  -17.6482 H           1 SY9       0.0266
     44 H19       -47.3282   -6.1488  -15.4118 H           1 SY9       0.0635
     45 H20       -48.7826   -5.1763  -15.2351 H           1 SY9       0.0635
     46 H21       -48.2626   -2.8652  -14.4731 H           1 SY9       0.0604
     47 H22       -45.4108   -2.3498  -15.1295 H           1 SY9       0.0338
     48 H23       -46.3413   -1.8167  -13.7435 H           1 SY9       0.0338
     49 H24       -47.0635    0.1534  -14.8809 H           1 SY9       0.0886
     50 H25       -44.4145   -0.5488  -15.5695 H           1 SY9       0.2123
@<TRIPOS>BOND
     1     1     2   1
     2     1    13   1
     3     1    16   1
     4     2     3   1
     5     3     4   1
     6     3    18   1
     7     4     5   1
     8     4    22   1
     9     5     6   1
    10     5    13   1
    11     6     7   1
    12     6    24   1
    13     7     8  ar
    14     7    12  ar
    15     8     9  ar
    16     9    10  ar
    17    10    11  ar
    18    11    12  ar
    19    12    13   1
    20    13    14   1
    21    14    15   1
    22    15    16   1
    23    16    17   1
    24    17    18   1
    25    18    19   2
    26    19    20   1
    27    20    21   1
    28    21    22   1
    29    22    23   1
    30    23    24   1
    31    24    25   1
    32     1    26   1
    33     2    27   1
    34     2    28   1
    35     3    29   1
    36     4    30   1
    37     5    31   1
    38     8    32   1
    39     9    33   1
    40    10    34   1
    41    11    35   1
    42    14    36   1
    43    14    37   1
    44    15    38   1
    45    15    39   1
    46    16    40   1
    47    17    41   1
    48    17    42   1
    49    19    43   1
    50    20    44   1
    51    20    45   1
    52    22    46   1
    53    23    47   1
    54    23    48   1
    55    24    49   1
    56    25    50   1
@<TRIPOS>SUBSTRUCTURE
     1  SY9      1

