@<TRIPOS>MOLECULE
2y5h_ligand_009
    60    64
SMALL
GAST_HUCK
****
This file was generated by PARSER (from files_GN.cpp)

@<TRIPOS>ATOM
      1 CL1        -7.5625   17.6981   27.2275 Cl          1 Y5H      -0.0522
      2 C25        -7.4546   16.2689   26.3313 C.2         1 Y5H       0.0990
      3 C24        -8.4971   15.6127   25.6712 C.2         1 Y5H      -0.0555
      4 C22        -8.1031   14.4582   24.9719 C.2         1 Y5H      -0.0588
      5 S1         -6.0167   15.3747   26.0397 S.3         1 Y5H      -0.0195
      6 C20        -6.7414   14.1544   25.0641 C.2         1 Y5H       0.0881
      7 C17        -6.0623   13.0982   24.4386 C.2         1 Y5H       0.1971
      8 N16        -4.7597   12.8143   24.6092 N.2         1 Y5H      -0.3009
      9 O10        -6.6035   12.2773   23.5078 O.3         1 Y5H      -0.2447
     10 C9         -5.6111   11.4627   23.0932 C.2         1 Y5H       0.0987
     11 C4         -4.4572   11.7916   23.7933 C.2         1 Y5H       0.0610
     12 C1         -3.0915   11.2690   23.5535 C.3         1 Y5H       0.0342
     13 N3         -2.2048   11.3511   24.7434 N.4         1 Y5H       0.2526
     14 C7         -0.8157   11.2680   24.2467 C.3         1 Y5H       0.0038
     15 C14        -0.4393    9.7749   24.3749 C.3         1 Y5H      -0.0022
     16 C15        -1.1677    9.3393   25.6575 C.3         1 Y5H      -0.0072
     17 C8         -2.3708   10.3002   25.7839 C.3         1 Y5H      -0.0298
     18 C5         -0.8276   11.8473   22.8004 C.3         1 Y5H       0.1231
     19 C2         -2.3171   12.0022   22.4258 C.3         1 Y5H       0.1287
     20 C6         -2.4460   13.4360   22.3041 C.2         1 Y5H       0.2198
     21 O13        -3.5181   13.9751   22.0637 O.2         1 Y5H      -0.3852
     22 C11        -0.3382   13.2023   22.6749 C.2         1 Y5H       0.2184
     23 O18         0.8409   13.4868   22.8511 O.2         1 Y5H      -0.3853
     24 N12        -1.2903   14.0649   22.3678 N.am        1 Y5H      -0.1843
     25 C19        -1.1076   15.4804   22.1436 C.3         1 Y5H       0.0635
     26 C21        -0.8799   15.8729   20.6490 C.3         1 Y5H       0.0123
     27 C23        -1.7035   15.1098   19.5430 C.3         1 Y5H      -0.0286
     28 N29        -0.9671   14.1681   18.5853 N.4         1 Y5H       0.2369
     29 C32        -1.9789   13.4772   17.6932 C.3         1 Y5H      -0.0418
     30 C31        -0.1963   13.0957   19.3158 C.3         1 Y5H      -0.0418
     31 C30        -0.0156   14.9439   17.7001 C.3         1 Y5H      -0.0418
     32 H1         -9.4607   15.9470   25.6895 H           1 Y5H       0.0446
     33 H2         -8.7660   13.8939   24.4380 H           1 Y5H       0.0483
     34 H3         -5.7004   10.7456   22.3692 H           1 Y5H       0.0892
     35 H4         -3.1863   10.2197   23.2500 H           1 Y5H       0.1004
     36 H5         -2.3357   12.2681   25.1757 H           1 Y5H       0.2053
     37 H6         -0.1610   11.8485   24.9052 H           1 Y5H       0.0882
     38 H7          0.6404    9.6303   24.4568 H           1 Y5H       0.0323
     39 H8         -0.8116    9.1996   23.5227 H           1 Y5H       0.0323
     40 H9         -0.5048    9.4539   26.5220 H           1 Y5H       0.0319
     41 H10        -1.4886    8.2941   25.5962 H           1 Y5H       0.0319
     42 H11        -3.3147    9.7523   25.6821 H           1 Y5H       0.0815
     43 H12        -2.3700   10.7790   26.7681 H           1 Y5H       0.0815
     44 H13        -0.2998   11.1926   22.0973 H           1 Y5H       0.0632
     45 H14        -2.5338   11.5442   21.4544 H           1 Y5H       0.0648
     46 H15        -0.2593   15.8237   22.7393 H           1 Y5H       0.0578
     47 H16        -1.9732   16.0352   22.5157 H           1 Y5H       0.0578
     48 H17         0.1927   15.8065   20.4516 H           1 Y5H       0.0340
     49 H18        -1.1327   16.9413   20.5790 H           1 Y5H       0.0340
     50 H19        -2.2063   15.8752   18.9420 H           1 Y5H       0.0816
     51 H20        -2.5245   14.5756   20.0244 H           1 Y5H       0.0816
     52 H21        -1.4869   12.8342   16.9560 H           1 Y5H       0.0778
     53 H22        -2.5866   14.1990   17.1397 H           1 Y5H       0.0778
     54 H23        -2.6639   12.8446   18.2730 H           1 Y5H       0.0778
     55 H24         0.5768   13.5129   19.9662 H           1 Y5H       0.0778
     56 H25         0.3036   12.4216   18.6127 H           1 Y5H       0.0778
     57 H26        -0.8591   12.4840   19.9300 H           1 Y5H       0.0778
     58 H27        -0.5474   15.6810   17.0814 H           1 Y5H       0.0778
     59 H28         0.5338   14.2749   17.0216 H           1 Y5H       0.0778
     60 H29         0.7234   15.4836   18.2971 H           1 Y5H       0.0778
@<TRIPOS>BOND
     1     1     2   1
     2     2     3   2
     3     2     5   1
     4     3     4   1
     5     4     6   2
     6     5     6   1
     7     6     7   1
     8     7     8   2
     9     7     9   1
    10     8    11   1
    11     9    10   1
    12    10    11   2
    13    11    12   1
    14    12    13   1
    15    12    19   1
    16    13    14   1
    17    13    17   1
    18    14    15   1
    19    14    18   1
    20    15    16   1
    21    16    17   1
    22    18    19   1
    23    18    22   1
    24    19    20   1
    25    20    21   2
    26    20    24  am
    27    22    23   2
    28    22    24  am
    29    24    25   1
    30    25    26   1
    31    26    27   1
    32    27    28   1
    33    28    29   1
    34    28    30   1
    35    28    31   1
    36     3    32   1
    37     4    33   1
    38    10    34   1
    39    12    35   1
    40    13    36   1
    41    14    37   1
    42    15    38   1
    43    15    39   1
    44    16    40   1
    45    16    41   1
    46    17    42   1
    47    17    43   1
    48    18    44   1
    49    19    45   1
    50    25    46   1
    51    25    47   1
    52    26    48   1
    53    26    49   1
    54    27    50   1
    55    27    51   1
    56    29    52   1
    57    29    53   1
    58    29    54   1
    59    30    55   1
    60    30    56   1
    61    30    57   1
    62    31    58   1
    63    31    59   1
    64    31    60   1
@<TRIPOS>SUBSTRUCTURE
     1  Y5H      1

