@<TRIPOS>MOLECULE
2y5h_ligand_050
    60    64
SMALL
GAST_HUCK
****
This file was generated by PARSER (from files_GN.cpp)

@<TRIPOS>ATOM
      1 CL1        -0.6160   13.6335   14.2960 Cl          1 Y5H      -0.0522
      2 C25        -0.8158   13.3433   15.9464 C.2         1 Y5H       0.0990
      3 C24         0.2002   13.1245   16.8809 C.2         1 Y5H      -0.0555
      4 C22        -0.2565   12.9414   18.1980 C.2         1 Y5H      -0.0588
      5 S1         -2.3130   13.3022   16.7902 S.3         1 Y5H      -0.0195
      6 C20        -1.6474   13.0058   18.3519 C.2         1 Y5H       0.0881
      7 C17        -2.3637   12.9144   19.5491 C.2         1 Y5H       0.1971
      8 N16        -3.7039   12.8738   19.6438 N.2         1 Y5H      -0.3009
      9 O10        -1.8054   12.9290   20.7833 O.3         1 Y5H      -0.2447
     10 C9         -2.8274   12.9008   21.6602 C.2         1 Y5H       0.0987
     11 C4         -4.0203   12.8551   20.9485 C.2         1 Y5H       0.0610
     12 C1         -5.4163   12.8917   21.4608 C.3         1 Y5H       0.0342
     13 N3         -5.7863   14.3086   21.7261 N.4         1 Y5H       0.2526
     14 C7         -5.6298   14.5765   23.1700 C.3         1 Y5H       0.0038
     15 C14        -6.6248   15.7187   23.5095 C.3         1 Y5H      -0.0022
     16 C15        -7.3834   15.9940   22.1979 C.3         1 Y5H      -0.0072
     17 C8         -7.1631   14.7230   21.3682 C.3         1 Y5H      -0.0298
     18 C5         -5.8792   13.2086   23.8708 C.3         1 Y5H       0.1231
     19 C2         -5.7306   12.1303   22.7819 C.3         1 Y5H       0.1287
     20 C6         -4.7338   11.2539   23.3510 C.2         1 Y5H       0.2198
     21 O13        -4.4015   10.2073   22.8077 O.2         1 Y5H      -0.3852
     22 C11        -4.9000   12.8035   24.8472 C.2         1 Y5H       0.2184
     23 O18        -4.7379   13.4307   25.8871 O.2         1 Y5H      -0.3853
     24 N12        -4.2847   11.6781   24.5222 N.am        1 Y5H      -0.1843
     25 C19        -3.3300   10.9653   25.3424 C.3         1 Y5H       0.0635
     26 C21        -1.9061   10.8443   24.7069 C.3         1 Y5H       0.0123
     27 C23        -1.2536    9.4198   24.8019 C.3         1 Y5H      -0.0286
     28 N29        -0.5047    8.9976   26.0568 N.4         1 Y5H       0.2369
     29 C32        -0.2845    7.4980   26.0143 C.3         1 Y5H      -0.0418
     30 C31        -1.2810    9.3143   27.3100 C.3         1 Y5H      -0.0418
     31 C30         0.8404    9.6768   26.1135 C.3         1 Y5H      -0.0418
     32 H1          1.1890   13.1124   16.6297 H           1 Y5H       0.0446
     33 H2          0.3821   12.7813   18.9802 H           1 Y5H       0.0483
     34 H3         -2.7251   12.9177   22.6782 H           1 Y5H       0.0892
     35 H4         -6.0515   12.4831   20.6667 H           1 Y5H       0.1004
     36 H5         -5.1499   14.9261   21.2176 H           1 Y5H       0.2053
     37 H6         -4.6059   14.9220   23.3480 H           1 Y5H       0.0882
     38 H7         -6.0944   16.6181   23.8342 H           1 Y5H       0.0323
     39 H8         -7.3237   15.4325   24.2995 H           1 Y5H       0.0323
     40 H9         -6.9433   16.8523   21.6808 H           1 Y5H       0.0319
     41 H10        -8.4460   16.1856   22.3695 H           1 Y5H       0.0319
     42 H11        -7.9018   13.9637   21.6449 H           1 Y5H       0.0815
     43 H12        -7.2433   14.9305   20.2984 H           1 Y5H       0.0815
     44 H13        -6.8781   13.1530   24.3147 H           1 Y5H       0.0632
     45 H14        -6.6720   11.5765   22.6778 H           1 Y5H       0.0648
     46 H15        -3.7525    9.9760   25.5340 H           1 Y5H       0.0578
     47 H16        -3.2291   11.4409   26.3227 H           1 Y5H       0.0578
     48 H17        -1.2555   11.5962   25.1554 H           1 Y5H       0.0340
     49 H18        -1.9711   11.1034   23.6475 H           1 Y5H       0.0340
     50 H19        -0.5718    9.3257   23.9476 H           1 Y5H       0.0816
     51 H20        -2.0518    8.7055   24.5999 H           1 Y5H       0.0816
     52 H21         0.2619    7.1509   26.8968 H           1 Y5H       0.0778
     53 H22         0.2922    7.2000   25.1319 H           1 Y5H       0.0778
     54 H23        -1.2313    6.9517   25.9872 H           1 Y5H       0.0778
     55 H24        -1.3987   10.3916   27.4406 H           1 Y5H       0.0778
     56 H25        -0.7741    8.9350   28.2020 H           1 Y5H       0.0778
     57 H26        -2.2798    8.8668   27.2797 H           1 Y5H       0.0778
     58 H27         1.4714    9.3860   25.2654 H           1 Y5H       0.0778
     59 H28         1.3835    9.4232   27.0281 H           1 Y5H       0.0778
     60 H29         0.7464   10.7631   26.0862 H           1 Y5H       0.0778
@<TRIPOS>BOND
     1     1     2   1
     2     2     3   2
     3     2     5   1
     4     3     4   1
     5     4     6   2
     6     5     6   1
     7     6     7   1
     8     7     8   2
     9     7     9   1
    10     8    11   1
    11     9    10   1
    12    10    11   2
    13    11    12   1
    14    12    13   1
    15    12    19   1
    16    13    14   1
    17    13    17   1
    18    14    15   1
    19    14    18   1
    20    15    16   1
    21    16    17   1
    22    18    19   1
    23    18    22   1
    24    19    20   1
    25    20    21   2
    26    20    24  am
    27    22    23   2
    28    22    24  am
    29    24    25   1
    30    25    26   1
    31    26    27   1
    32    27    28   1
    33    28    29   1
    34    28    30   1
    35    28    31   1
    36     3    32   1
    37     4    33   1
    38    10    34   1
    39    12    35   1
    40    13    36   1
    41    14    37   1
    42    15    38   1
    43    15    39   1
    44    16    40   1
    45    16    41   1
    46    17    42   1
    47    17    43   1
    48    18    44   1
    49    19    45   1
    50    25    46   1
    51    25    47   1
    52    26    48   1
    53    26    49   1
    54    27    50   1
    55    27    51   1
    56    29    52   1
    57    29    53   1
    58    29    54   1
    59    30    55   1
    60    30    56   1
    61    30    57   1
    62    31    58   1
    63    31    59   1
    64    31    60   1
@<TRIPOS>SUBSTRUCTURE
     1  Y5H      1

