@<TRIPOS>MOLECULE
2y5h_ligand_044
    60    64
SMALL
GAST_HUCK
****
This file was generated by PARSER (from files_GN.cpp)

@<TRIPOS>ATOM
      1 CL1       -11.2921   14.5935   22.1582 Cl          1 Y5H      -0.0522
      2 C25        -9.7591   13.8938   22.2628 C.2         1 Y5H       0.0990
      3 C24        -8.8992   13.5965   21.2050 C.2         1 Y5H      -0.0555
      4 C22        -7.6745   13.0248   21.5915 C.2         1 Y5H      -0.0588
      5 S1         -8.9615   13.4390   23.7161 S.3         1 Y5H      -0.0195
      6 C20        -7.5252   12.8508   22.9768 C.2         1 Y5H       0.0881
      7 C17        -6.3964   12.3757   23.6561 C.2         1 Y5H       0.1971
      8 N16        -5.3081   11.8344   23.0859 N.2         1 Y5H      -0.3009
      9 O10        -6.2084   12.4858   24.9947 O.3         1 Y5H      -0.2447
     10 C9         -4.9715   12.0198   25.2500 C.2         1 Y5H       0.0987
     11 C4         -4.3940   11.6182   24.0470 C.2         1 Y5H       0.0610
     12 C1         -3.0214   11.1181   23.7878 C.3         1 Y5H       0.0342
     13 N3         -2.0762   11.2068   24.9370 N.4         1 Y5H       0.2526
     14 C7         -0.7076   11.1357   24.3817 C.3         1 Y5H       0.0038
     15 C14        -0.3057    9.6502   24.5228 C.3         1 Y5H      -0.0022
     16 C15        -0.9501    9.2411   25.8544 C.3         1 Y5H      -0.0072
     17 C8         -2.1850   10.1598   25.9897 C.3         1 Y5H      -0.0298
     18 C5         -0.7762   11.6828   22.9292 C.3         1 Y5H       0.1231
     19 C2         -2.2780   11.8405   22.6281 C.3         1 Y5H       0.1287
     20 C6         -2.4087   13.2752   22.5037 C.2         1 Y5H       0.2198
     21 O13        -3.4799   13.8209   22.2722 O.2         1 Y5H      -0.3852
     22 C11        -0.2840   13.0303   22.7429 C.2         1 Y5H       0.2184
     23 O18         0.9039   13.3195   22.8313 O.2         1 Y5H      -0.3853
     24 N12        -1.2436   13.8975   22.4770 N.am        1 Y5H      -0.1843
     25 C19        -1.0497   15.2983   22.1646 C.3         1 Y5H       0.0635
     26 C21        -0.6283   15.5590   20.6862 C.3         1 Y5H       0.0123
     27 C23        -1.5694   14.9679   19.5744 C.3         1 Y5H      -0.0286
     28 N29        -0.9878   14.0540   18.5008 N.4         1 Y5H       0.2369
     29 C32        -0.2999   12.8525   19.1001 C.3         1 Y5H      -0.0418
     30 C31        -0.0277   14.8251   17.6236 C.3         1 Y5H      -0.0418
     31 C30        -2.1119   13.5354   17.6297 C.3         1 Y5H      -0.0418
     32 H1         -9.1332   13.7919   20.2262 H           1 Y5H       0.0446
     33 H2         -6.9472   12.7847   20.9181 H           1 Y5H       0.0483
     34 H3         -4.5362   11.9964   26.1739 H           1 Y5H       0.0892
     35 H4         -3.1261   10.0689   23.4849 H           1 Y5H       0.1004
     36 H5         -2.1971   12.1259   25.3683 H           1 Y5H       0.2053
     37 H6         -0.0358   11.7406   25.0023 H           1 Y5H       0.0882
     38 H7          0.7788    9.5222   24.5408 H           1 Y5H       0.0323
     39 H8         -0.7232    9.0484   23.7097 H           1 Y5H       0.0323
     40 H9         -0.2544    9.4235   26.6769 H           1 Y5H       0.0319
     41 H10        -1.2283    8.1840   25.8520 H           1 Y5H       0.0319
     42 H11        -3.1075    9.5770   25.9039 H           1 Y5H       0.0815
     43 H12        -2.1848   10.6471   26.9669 H           1 Y5H       0.0815
     44 H13        -0.2906   11.0119   22.2142 H           1 Y5H       0.0632
     45 H14        -2.5359   11.3825   21.6674 H           1 Y5H       0.0648
     46 H15        -0.2868   15.7110   22.8299 H           1 Y5H       0.0578
     47 H16        -1.9653   15.8622   22.3660 H           1 Y5H       0.0578
     48 H17         0.3956   15.2067   20.5515 H           1 Y5H       0.0340
     49 H18        -0.5890   16.6446   20.5592 H           1 Y5H       0.0340
     50 H19        -2.0389   15.8240   19.0748 H           1 Y5H       0.0816
     51 H20        -2.3976   14.4539   20.0637 H           1 Y5H       0.0816
     52 H21         0.0657   12.1734   18.3222 H           1 Y5H       0.0778
     53 H22        -0.9818   12.2902   19.7448 H           1 Y5H       0.0778
     54 H23         0.5641   13.1395   19.6982 H           1 Y5H       0.0778
     55 H24        -0.5343   15.6458   17.1063 H           1 Y5H       0.0778
     56 H25         0.4244   14.1845   16.8597 H           1 Y5H       0.0778
     57 H26         0.7867   15.2632   18.2027 H           1 Y5H       0.0778
     58 H27        -2.8156   12.9280   18.2078 H           1 Y5H       0.0778
     59 H28        -1.7339   12.9103   16.8163 H           1 Y5H       0.0778
     60 H29        -2.6792   14.3536   17.1767 H           1 Y5H       0.0778
@<TRIPOS>BOND
     1     1     2   1
     2     2     3   2
     3     2     5   1
     4     3     4   1
     5     4     6   2
     6     5     6   1
     7     6     7   1
     8     7     8   2
     9     7     9   1
    10     8    11   1
    11     9    10   1
    12    10    11   2
    13    11    12   1
    14    12    13   1
    15    12    19   1
    16    13    14   1
    17    13    17   1
    18    14    15   1
    19    14    18   1
    20    15    16   1
    21    16    17   1
    22    18    19   1
    23    18    22   1
    24    19    20   1
    25    20    21   2
    26    20    24  am
    27    22    23   2
    28    22    24  am
    29    24    25   1
    30    25    26   1
    31    26    27   1
    32    27    28   1
    33    28    29   1
    34    28    30   1
    35    28    31   1
    36     3    32   1
    37     4    33   1
    38    10    34   1
    39    12    35   1
    40    13    36   1
    41    14    37   1
    42    15    38   1
    43    15    39   1
    44    16    40   1
    45    16    41   1
    46    17    42   1
    47    17    43   1
    48    18    44   1
    49    19    45   1
    50    25    46   1
    51    25    47   1
    52    26    48   1
    53    26    49   1
    54    27    50   1
    55    27    51   1
    56    29    52   1
    57    29    53   1
    58    29    54   1
    59    30    55   1
    60    30    56   1
    61    30    57   1
    62    31    58   1
    63    31    59   1
    64    31    60   1
@<TRIPOS>SUBSTRUCTURE
     1  Y5H      1

