@<TRIPOS>MOLECULE
2y5h_ligand_072
    60    64
SMALL
GAST_HUCK
****
This file was generated by PARSER (from files_GN.cpp)

@<TRIPOS>ATOM
      1 CL1         0.5635   15.7897   11.0800 Cl          1 Y5H      -0.0522
      2 C25         1.3840   16.8025   12.1500 C.2         1 Y5H       0.0990
      3 C24         2.2764   17.8306   11.8287 C.2         1 Y5H      -0.0555
      4 C22         2.7909   18.5187   12.9353 C.2         1 Y5H      -0.0588
      5 S1          1.2384   16.7659   13.8633 S.3         1 Y5H      -0.0195
      6 C20         2.3246   18.0650   14.1779 C.2         1 Y5H       0.0881
      7 C17         2.5781   18.6227   15.4377 C.2         1 Y5H       0.1971
      8 N16         2.0898   18.1647   16.6053 N.2         1 Y5H      -0.3009
      9 O10         3.2407   19.7913   15.6265 O.3         1 Y5H      -0.2447
     10 C9          3.1598   20.0663   16.9372 C.2         1 Y5H       0.0987
     11 C4          2.4218   19.0543   17.5551 C.2         1 Y5H       0.0610
     12 C1          2.0268   19.0346   18.9849 C.3         1 Y5H       0.0342
     13 N3          2.8392   18.1121   19.8231 N.4         1 Y5H       0.2526
     14 C7          2.1037   17.9619   21.0916 C.3         1 Y5H       0.0038
     15 C14         2.7207   18.9913   22.0597 C.3         1 Y5H      -0.0022
     16 C15         4.2029   18.9825   21.6651 C.3         1 Y5H      -0.0072
     17 C8          4.2202   18.5336   20.1838 C.3         1 Y5H      -0.0298
     18 C5          0.6008   18.1787   20.7632 C.3         1 Y5H       0.1231
     19 C2          0.5400   18.7025   19.3175 C.3         1 Y5H       0.1287
     20 C6         -0.1545   17.6173   18.6562 C.2         1 Y5H       0.2198
     21 O13        -0.4830   17.6961   17.4810 O.2         1 Y5H      -0.3852
     22 C11        -0.1388   16.9435   20.6969 C.2         1 Y5H       0.2184
     23 O18        -0.3308   16.2873   21.7119 O.2         1 Y5H      -0.3853
     24 N12        -0.5384   16.6430   19.4725 N.am        1 Y5H      -0.1843
     25 C19        -1.3205   15.5007   19.0266 C.3         1 Y5H       0.0635
     26 C21        -1.7740   14.4003   20.0375 C.3         1 Y5H       0.0123
     27 C23        -0.7117   13.3144   20.4006 C.3         1 Y5H      -0.0286
     28 N29        -0.9194   12.5057   21.6781 N.4         1 Y5H       0.2369
     29 C32        -0.5754   13.3227   22.9031 C.3         1 Y5H      -0.0418
     30 C31         0.0004   11.3045   21.6413 C.3         1 Y5H      -0.0418
     31 C30        -2.3424   12.0144   21.8111 C.3         1 Y5H      -0.0418
     32 H1          2.5191   18.0703   10.8652 H           1 Y5H       0.0446
     33 H2          3.4338   19.3078   12.8403 H           1 Y5H       0.0483
     34 H3          3.5476   20.8926   17.3914 H           1 Y5H       0.0892
     35 H4          2.1931   20.0525   19.3641 H           1 Y5H       0.1004
     36 H5          2.8782   17.1950   19.3734 H           1 Y5H       0.2053
     37 H6          2.2896   16.9578   21.4942 H           1 Y5H       0.0882
     38 H7          2.5723   18.7026   23.1050 H           1 Y5H       0.0323
     39 H8          2.2961   19.9890   21.9003 H           1 Y5H       0.0323
     40 H9          4.7444   18.2659   22.2904 H           1 Y5H       0.0319
     41 H10         4.6502   19.9713   21.7939 H           1 Y5H       0.0319
     42 H11         4.5928   19.3388   19.5434 H           1 Y5H       0.0815
     43 H12         4.8888   17.6785   20.0649 H           1 Y5H       0.0815
     44 H13         0.1141   18.8737   21.4552 H           1 Y5H       0.0632
     45 H14        -0.0740   19.6102   19.2484 H           1 Y5H       0.0648
     46 H15        -0.7729   14.9946   18.2218 H           1 Y5H       0.0578
     47 H16        -2.2419   15.9063   18.5902 H           1 Y5H       0.0578
     48 H17        -2.6183   13.8701   19.5840 H           1 Y5H       0.0340
     49 H18        -2.1588   14.8845   20.9318 H           1 Y5H       0.0340
     50 H19         0.2709   13.7931   20.4291 H           1 Y5H       0.0816
     51 H20        -0.6836   12.6288   19.5425 H           1 Y5H       0.0816
     52 H21        -0.6479   12.7242   23.8170 H           1 Y5H       0.0778
     53 H22        -1.2520   14.1722   23.0247 H           1 Y5H       0.0778
     54 H23         0.4446   13.7158   22.8502 H           1 Y5H       0.0778
     55 H24        -0.2671   10.6256   20.8251 H           1 Y5H       0.0778
     56 H25        -0.0419   10.7260   22.5692 H           1 Y5H       0.0778
     57 H26         1.0412   11.6064   21.4908 H           1 Y5H       0.0778
     58 H27        -3.0379   12.8413   21.9789 H           1 Y5H       0.0778
     59 H28        -2.4570   11.3278   22.6561 H           1 Y5H       0.0778
     60 H29        -2.6661   11.4884   20.9089 H           1 Y5H       0.0778
@<TRIPOS>BOND
     1     1     2   1
     2     2     3   2
     3     2     5   1
     4     3     4   1
     5     4     6   2
     6     5     6   1
     7     6     7   1
     8     7     8   2
     9     7     9   1
    10     8    11   1
    11     9    10   1
    12    10    11   2
    13    11    12   1
    14    12    13   1
    15    12    19   1
    16    13    14   1
    17    13    17   1
    18    14    15   1
    19    14    18   1
    20    15    16   1
    21    16    17   1
    22    18    19   1
    23    18    22   1
    24    19    20   1
    25    20    21   2
    26    20    24  am
    27    22    23   2
    28    22    24  am
    29    24    25   1
    30    25    26   1
    31    26    27   1
    32    27    28   1
    33    28    29   1
    34    28    30   1
    35    28    31   1
    36     3    32   1
    37     4    33   1
    38    10    34   1
    39    12    35   1
    40    13    36   1
    41    14    37   1
    42    15    38   1
    43    15    39   1
    44    16    40   1
    45    16    41   1
    46    17    42   1
    47    17    43   1
    48    18    44   1
    49    19    45   1
    50    25    46   1
    51    25    47   1
    52    26    48   1
    53    26    49   1
    54    27    50   1
    55    27    51   1
    56    29    52   1
    57    29    53   1
    58    29    54   1
    59    30    55   1
    60    30    56   1
    61    30    57   1
    62    31    58   1
    63    31    59   1
    64    31    60   1
@<TRIPOS>SUBSTRUCTURE
     1  Y5H      1

