@<TRIPOS>MOLECULE
2y5h_ligand_045
    60    64
SMALL
GAST_HUCK
****
This file was generated by PARSER (from files_GN.cpp)

@<TRIPOS>ATOM
      1 CL1        -6.3538   17.9701   25.1378 Cl          1 Y5H      -0.0522
      2 C25        -5.1941   17.4500   24.0229 C.2         1 Y5H       0.0990
      3 C24        -4.2991   18.2543   23.3138 C.2         1 Y5H      -0.0555
      4 C22        -3.4374   17.5435   22.4603 C.2         1 Y5H      -0.0588
      5 S1         -4.8996   15.8203   23.5623 S.3         1 Y5H      -0.0195
      6 C20        -3.6167   16.1550   22.4679 C.2         1 Y5H       0.0881
      7 C17        -2.8864   15.2143   21.7264 C.2         1 Y5H       0.1971
      8 N16        -3.1754   13.9043   21.6454 N.2         1 Y5H      -0.3009
      9 O10        -1.8039   15.5021   20.9695 O.3         1 Y5H      -0.2447
     10 C9         -1.4104   14.3430   20.4047 C.2         1 Y5H       0.0987
     11 C4         -2.2748   13.3363   20.8211 C.2         1 Y5H       0.0610
     12 C1         -2.2662   11.9158   20.3776 C.3         1 Y5H       0.0342
     13 N3         -3.6626   11.3942   20.3194 N.4         1 Y5H       0.2526
     14 C7         -3.9415   10.7146   21.5971 C.3         1 Y5H       0.0038
     15 C14        -5.0628    9.6831   21.3333 C.3         1 Y5H      -0.0022
     16 C15        -5.2393    9.6773   19.8044 C.3         1 Y5H      -0.0072
     17 C8         -4.0006   10.4115   19.2648 C.3         1 Y5H      -0.0298
     18 C5         -2.5758   10.1241   22.0290 C.3         1 Y5H       0.1231
     19 C2         -1.4890   10.9207   21.2951 C.3         1 Y5H       0.1287
     20 C6         -0.6789   11.4095   22.3858 C.2         1 Y5H       0.2198
     21 O13         0.3393   12.0588   22.1902 O.2         1 Y5H      -0.3852
     22 C11        -2.2473   10.3476   23.4011 C.2         1 Y5H       0.2184
     23 O18        -3.0058    9.9914   24.2892 O.2         1 Y5H      -0.3853
     24 N12        -1.1461   11.0506   23.5708 N.am        1 Y5H      -0.1843
     25 C19        -0.5877   11.3752   24.8653 C.3         1 Y5H       0.0635
     26 C21         0.1955   10.1932   25.5337 C.3         1 Y5H       0.0123
     27 C23        -0.3811    9.5429   26.8545 C.3         1 Y5H      -0.0286
     28 N29        -1.0209    8.1393   26.9182 N.4         1 Y5H       0.2369
     29 C32        -0.6055    7.2463   25.7793 C.3         1 Y5H      -0.0418
     30 C31        -2.5327    8.2140   26.9521 C.3         1 Y5H      -0.0418
     31 C30        -0.6133    7.4451   28.2008 C.3         1 Y5H      -0.0418
     32 H1         -4.2672   19.2702   23.4127 H           1 Y5H       0.0446
     33 H2         -2.7366   18.0111   21.8824 H           1 Y5H       0.0483
     34 H3         -0.6180   14.2314   19.7693 H           1 Y5H       0.0892
     35 H4         -1.8267   11.8953   19.3761 H           1 Y5H       0.1004
     36 H5         -4.3137   12.1771   20.2193 H           1 Y5H       0.2053
     37 H6         -4.2958   11.4620   22.3164 H           1 Y5H       0.0882
     38 H7         -5.9919    9.9870   21.8216 H           1 Y5H       0.0323
     39 H8         -4.7978    8.6884   21.7009 H           1 Y5H       0.0323
     40 H9         -6.1445   10.2247   19.5293 H           1 Y5H       0.0319
     41 H10        -5.3028    8.6598   19.4101 H           1 Y5H       0.0319
     42 H11        -3.1904    9.6938   19.1147 H           1 Y5H       0.0815
     43 H12        -4.2144   10.9158   18.3201 H           1 Y5H       0.0815
     44 H13        -2.4823    9.0587   21.8016 H           1 Y5H       0.0632
     45 H14        -0.8821   10.2451   20.6773 H           1 Y5H       0.0648
     46 H15        -1.3838   11.7411   25.5231 H           1 Y5H       0.0578
     47 H16         0.1000   12.2201   24.7466 H           1 Y5H       0.0578
     48 H17         1.1794   10.5999   25.7900 H           1 Y5H       0.0340
     49 H18         0.4184    9.4426   24.7803 H           1 Y5H       0.0340
     50 H19        -1.0672   10.2732   27.2944 H           1 Y5H       0.0816
     51 H20         0.4694    9.5617   27.5484 H           1 Y5H       0.0816
     52 H21        -1.0273    6.2392   25.8718 H           1 Y5H       0.0778
     53 H22         0.4812    7.1339   25.7214 H           1 Y5H       0.0778
     54 H23        -0.9535    7.6521   24.8279 H           1 Y5H       0.0778
     55 H24        -2.8881    8.7884   27.8119 H           1 Y5H       0.0778
     56 H25        -2.9911    7.2212   27.0081 H           1 Y5H       0.0778
     57 H26        -2.9329    8.6894   26.0652 H           1 Y5H       0.0778
     58 H27         0.4696    7.2812   28.2380 H           1 Y5H       0.0778
     59 H28        -1.0893    6.4644   28.3154 H           1 Y5H       0.0778
     60 H29        -0.8887    8.0447   29.0721 H           1 Y5H       0.0778
@<TRIPOS>BOND
     1     1     2   1
     2     2     3   2
     3     2     5   1
     4     3     4   1
     5     4     6   2
     6     5     6   1
     7     6     7   1
     8     7     8   2
     9     7     9   1
    10     8    11   1
    11     9    10   1
    12    10    11   2
    13    11    12   1
    14    12    13   1
    15    12    19   1
    16    13    14   1
    17    13    17   1
    18    14    15   1
    19    14    18   1
    20    15    16   1
    21    16    17   1
    22    18    19   1
    23    18    22   1
    24    19    20   1
    25    20    21   2
    26    20    24  am
    27    22    23   2
    28    22    24  am
    29    24    25   1
    30    25    26   1
    31    26    27   1
    32    27    28   1
    33    28    29   1
    34    28    30   1
    35    28    31   1
    36     3    32   1
    37     4    33   1
    38    10    34   1
    39    12    35   1
    40    13    36   1
    41    14    37   1
    42    15    38   1
    43    15    39   1
    44    16    40   1
    45    16    41   1
    46    17    42   1
    47    17    43   1
    48    18    44   1
    49    19    45   1
    50    25    46   1
    51    25    47   1
    52    26    48   1
    53    26    49   1
    54    27    50   1
    55    27    51   1
    56    29    52   1
    57    29    53   1
    58    29    54   1
    59    30    55   1
    60    30    56   1
    61    30    57   1
    62    31    58   1
    63    31    59   1
    64    31    60   1
@<TRIPOS>SUBSTRUCTURE
     1  Y5H      1

