@<TRIPOS>MOLECULE
2y5h_ligand_013
    60    64
SMALL
GAST_HUCK
****
This file was generated by PARSER (from files_GN.cpp)

@<TRIPOS>ATOM
      1 CL1        -1.2220    7.3601   28.7565 Cl          1 Y5H      -0.0522
      2 C25        -1.0967    8.5884   27.6062 C.2         1 Y5H       0.0990
      3 C24         0.0587    9.2672   27.2128 C.2         1 Y5H      -0.0555
      4 C22        -0.1458   10.2212   26.1999 C.2         1 Y5H      -0.0588
      5 S1         -2.4004    9.2114   26.6781 S.3         1 Y5H      -0.0195
      6 C20        -1.4731   10.3453   25.7741 C.2         1 Y5H       0.0881
      7 C17        -1.9755   11.2126   24.7961 C.2         1 Y5H       0.1971
      8 N16        -3.2694   11.2919   24.4424 N.2         1 Y5H      -0.3009
      9 O10        -1.2370   12.0835   24.0684 O.3         1 Y5H      -0.2447
     10 C9         -2.0952   12.7135   23.2404 C.2         1 Y5H       0.0987
     11 C4         -3.3718   12.2174   23.4767 C.2         1 Y5H       0.0610
     12 C1         -4.6227   12.6227   22.7952 C.3         1 Y5H       0.0342
     13 N3         -5.8418   12.3610   23.6125 N.4         1 Y5H       0.2526
     14 C7         -6.9863   12.3678   22.6868 C.3         1 Y5H       0.0038
     15 C14        -7.5544   13.7995   22.7481 C.3         1 Y5H      -0.0022
     16 C15        -7.3601   14.1775   24.2248 C.3         1 Y5H      -0.0072
     17 C8         -6.1483   13.3388   24.6934 C.3         1 Y5H      -0.0298
     18 C5         -6.4333   11.9087   21.3105 C.3         1 Y5H       0.1231
     19 C2         -4.8964   11.9351   21.4282 C.3         1 Y5H       0.1287
     20 C6         -4.5613   10.5344   21.2671 C.2         1 Y5H       0.2198
     21 O13        -3.4027   10.1396   21.2741 O.2         1 Y5H      -0.3852
     22 C11        -6.7029   10.5222   21.0376 C.2         1 Y5H       0.2184
     23 O18        -7.8480   10.1116   20.8969 O.2         1 Y5H      -0.3853
     24 N12        -5.6154    9.7744   21.0197 N.am        1 Y5H      -0.1843
     25 C19        -5.6145    8.3460   20.7880 C.3         1 Y5H       0.0635
     26 C21        -6.0562    7.9767   19.3433 C.3         1 Y5H       0.0123
     27 C23        -6.2325    6.4457   19.1113 C.3         1 Y5H      -0.0286
     28 N29        -6.5187    5.9537   17.6982 N.4         1 Y5H       0.2369
     29 C32        -6.8132    4.4713   17.7587 C.3         1 Y5H      -0.0418
     30 C31        -5.3218    6.1589   16.8003 C.3         1 Y5H      -0.0418
     31 C30        -7.7157    6.6479   17.0947 C.3         1 Y5H      -0.0418
     32 H1          0.9758    9.0870   27.6258 H           1 Y5H       0.0446
     33 H2          0.6167   10.7846   25.8163 H           1 Y5H       0.0483
     34 H3         -1.8426   13.4352   22.5629 H           1 Y5H       0.0892
     35 H4         -4.5510   13.7012   22.6056 H           1 Y5H       0.1004
     36 H5         -5.7757   11.4145   24.0020 H           1 Y5H       0.2053
     37 H6         -7.7505   11.6793   23.0695 H           1 Y5H       0.0882
     38 H7         -8.6067   13.8282   22.4533 H           1 Y5H       0.0323
     39 H8         -6.9832   14.4781   22.1076 H           1 Y5H       0.0323
     40 H9         -8.2517   13.9064   24.7992 H           1 Y5H       0.0319
     41 H10        -7.1800   15.2500   24.3351 H           1 Y5H       0.0319
     42 H11        -5.2988   13.9895   24.9196 H           1 Y5H       0.0815
     43 H12        -6.3963   12.7936   25.6055 H           1 Y5H       0.0815
     44 H13        -6.7904   12.5326   20.4850 H           1 Y5H       0.0632
     45 H14        -4.4442   12.5092   20.6119 H           1 Y5H       0.0648
     46 H15        -6.2861    7.8778   21.5140 H           1 Y5H       0.0578
     47 H16        -4.6198    7.9243   20.9503 H           1 Y5H       0.0578
     48 H17        -5.3170    8.3823   18.6536 H           1 Y5H       0.0340
     49 H18        -7.0085    8.4613   19.1298 H           1 Y5H       0.0340
     50 H19        -7.0489    6.1333   19.7726 H           1 Y5H       0.0816
     51 H20        -5.3279    5.9520   19.4837 H           1 Y5H       0.0816
     52 H21        -6.9889    4.0507   16.7648 H           1 Y5H       0.0778
     53 H22        -7.7039    4.2661   18.3587 H           1 Y5H       0.0778
     54 H23        -5.9856    3.9158   18.2078 H           1 Y5H       0.0778
     55 H24        -5.0815    7.2159   16.6742 H           1 Y5H       0.0778
     56 H25        -5.4989    5.7572   15.7991 H           1 Y5H       0.0778
     57 H26        -4.4346    5.6612   17.2032 H           1 Y5H       0.0778
     58 H27        -8.5957    6.5541   17.7386 H           1 Y5H       0.0778
     59 H28        -7.9733    6.2277   16.1176 H           1 Y5H       0.0778
     60 H29        -7.5290    7.7132   16.9392 H           1 Y5H       0.0778
@<TRIPOS>BOND
     1     1     2   1
     2     2     3   2
     3     2     5   1
     4     3     4   1
     5     4     6   2
     6     5     6   1
     7     6     7   1
     8     7     8   2
     9     7     9   1
    10     8    11   1
    11     9    10   1
    12    10    11   2
    13    11    12   1
    14    12    13   1
    15    12    19   1
    16    13    14   1
    17    13    17   1
    18    14    15   1
    19    14    18   1
    20    15    16   1
    21    16    17   1
    22    18    19   1
    23    18    22   1
    24    19    20   1
    25    20    21   2
    26    20    24  am
    27    22    23   2
    28    22    24  am
    29    24    25   1
    30    25    26   1
    31    26    27   1
    32    27    28   1
    33    28    29   1
    34    28    30   1
    35    28    31   1
    36     3    32   1
    37     4    33   1
    38    10    34   1
    39    12    35   1
    40    13    36   1
    41    14    37   1
    42    15    38   1
    43    15    39   1
    44    16    40   1
    45    16    41   1
    46    17    42   1
    47    17    43   1
    48    18    44   1
    49    19    45   1
    50    25    46   1
    51    25    47   1
    52    26    48   1
    53    26    49   1
    54    27    50   1
    55    27    51   1
    56    29    52   1
    57    29    53   1
    58    29    54   1
    59    30    55   1
    60    30    56   1
    61    30    57   1
    62    31    58   1
    63    31    59   1
    64    31    60   1
@<TRIPOS>SUBSTRUCTURE
     1  Y5H      1

