@<TRIPOS>MOLECULE
2y5h_ligand_024
    60    64
SMALL
GAST_HUCK
****
This file was generated by PARSER (from files_GN.cpp)

@<TRIPOS>ATOM
      1 CL1        -3.8189   21.2503   16.7284 Cl          1 Y5H      -0.0522
      2 C25        -3.5839   19.5962   16.4834 C.2         1 Y5H       0.0990
      3 C24        -3.5218   18.9321   15.2568 C.2         1 Y5H      -0.0555
      4 C22        -3.3104   17.5460   15.3588 C.2         1 Y5H      -0.0588
      5 S1         -3.3744   18.4197   17.7174 S.3         1 Y5H      -0.0195
      6 C20        -3.2032   17.0639   16.6703 C.2         1 Y5H       0.0881
      7 C17        -3.0007   15.7356   17.0721 C.2         1 Y5H       0.1971
      8 N16        -2.9956   15.3056   18.3470 N.2         1 Y5H      -0.3009
      9 O10        -2.7810   14.6977   16.2323 O.3         1 Y5H      -0.2447
     10 C9         -2.6334   13.6024   17.0052 C.2         1 Y5H       0.0987
     11 C4         -2.7824   13.9791   18.3363 C.2         1 Y5H       0.0610
     12 C1         -2.7005   13.1244   19.5483 C.3         1 Y5H       0.0342
     13 N3         -1.4648   12.2932   19.5831 N.4         1 Y5H       0.2526
     14 C7         -1.6981   11.2142   20.5594 C.3         1 Y5H       0.0038
     15 C14        -1.0960   11.7390   21.8800 C.3         1 Y5H      -0.0022
     16 C15         0.1426   12.5151   21.4062 C.3         1 Y5H      -0.0072
     17 C8         -0.1962   12.9636   19.9669 C.3         1 Y5H      -0.0298
     18 C5         -3.2273   10.9472   20.5621 C.3         1 Y5H       0.1231
     19 C2         -3.8674   12.1237   19.7960 C.3         1 Y5H       0.1287
     20 C6         -4.4661   11.4504   18.6669 C.2         1 Y5H       0.2198
     21 O13        -5.1469   12.0461   17.8427 O.2         1 Y5H      -0.3852
     22 C11        -3.6121    9.8070   19.7675 C.2         1 Y5H       0.2184
     23 O18        -3.3231    8.6637   20.0945 O.2         1 Y5H      -0.3853
     24 N12        -4.2976   10.1390   18.6916 N.am        1 Y5H      -0.1843
     25 C19        -4.8071    9.2200   17.6984 C.3         1 Y5H       0.0635
     26 C21        -6.3113    8.8771   17.9125 C.3         1 Y5H       0.0123
     27 C23        -6.5955    7.5807   18.7520 C.3         1 Y5H      -0.0286
     28 N29        -7.0413    6.3184   18.0234 N.4         1 Y5H       0.2369
     29 C32        -8.3651    6.5286   17.3237 C.3         1 Y5H      -0.0418
     30 C31        -7.2273    5.2087   19.0363 C.3         1 Y5H      -0.0418
     31 C30        -6.0036    5.8730   17.0238 C.3         1 Y5H      -0.0418
     32 H1         -3.6250   19.4117   14.3605 H           1 Y5H       0.0446
     33 H2         -3.2515   16.9419   14.5362 H           1 Y5H       0.0483
     34 H3         -2.4517   12.6601   16.6600 H           1 Y5H       0.0892
     35 H4         -2.6920   13.8010   20.4126 H           1 Y5H       0.1004
     36 H5         -1.3472   11.8534   18.6688 H           1 Y5H       0.2053
     37 H6         -1.1327   10.3260   20.2493 H           1 Y5H       0.0882
     38 H7         -0.8328   10.9225   22.5580 H           1 Y5H       0.0323
     39 H8         -1.7903   12.4164   22.3866 H           1 Y5H       0.0323
     40 H9          1.0133   11.8534   21.3972 H           1 Y5H       0.0319
     41 H10         0.3508   13.3654   22.0606 H           1 Y5H       0.0319
     42 H11        -0.2621   14.0538   19.9039 H           1 Y5H       0.0815
     43 H12         0.5837   12.6331   19.2783 H           1 Y5H       0.0815
     44 H13        -3.6322   10.8537   21.5750 H           1 Y5H       0.0632
     45 H14        -4.6592   12.5948   20.3884 H           1 Y5H       0.0648
     46 H15        -4.2183    8.2995   17.6798 H           1 Y5H       0.0578
     47 H16        -4.6781    9.6695   16.7088 H           1 Y5H       0.0578
     48 H17        -6.7692    8.7963   16.9281 H           1 Y5H       0.0340
     49 H18        -6.8051    9.7255   18.3956 H           1 Y5H       0.0340
     50 H19        -7.3672    7.8447   19.4852 H           1 Y5H       0.0816
     51 H20        -5.7058    7.3559   19.3515 H           1 Y5H       0.0816
     52 H21        -8.7696    5.5892   16.9357 H           1 Y5H       0.0778
     53 H22        -8.2850    7.2030   16.4699 H           1 Y5H       0.0778
     54 H23        -9.1060    6.9497   18.0081 H           1 Y5H       0.0778
     55 H24        -6.2964    4.9893   19.5647 H           1 Y5H       0.0778
     56 H25        -7.5543    4.2786   18.5610 H           1 Y5H       0.0778
     57 H26        -7.9771    5.4719   19.7877 H           1 Y5H       0.0778
     58 H27        -5.8336    6.6268   16.2518 H           1 Y5H       0.0778
     59 H28        -6.3145    4.9562   16.5151 H           1 Y5H       0.0778
     60 H29        -5.0425    5.6723   17.5070 H           1 Y5H       0.0778
@<TRIPOS>BOND
     1     1     2   1
     2     2     3   2
     3     2     5   1
     4     3     4   1
     5     4     6   2
     6     5     6   1
     7     6     7   1
     8     7     8   2
     9     7     9   1
    10     8    11   1
    11     9    10   1
    12    10    11   2
    13    11    12   1
    14    12    13   1
    15    12    19   1
    16    13    14   1
    17    13    17   1
    18    14    15   1
    19    14    18   1
    20    15    16   1
    21    16    17   1
    22    18    19   1
    23    18    22   1
    24    19    20   1
    25    20    21   2
    26    20    24  am
    27    22    23   2
    28    22    24  am
    29    24    25   1
    30    25    26   1
    31    26    27   1
    32    27    28   1
    33    28    29   1
    34    28    30   1
    35    28    31   1
    36     3    32   1
    37     4    33   1
    38    10    34   1
    39    12    35   1
    40    13    36   1
    41    14    37   1
    42    15    38   1
    43    15    39   1
    44    16    40   1
    45    16    41   1
    46    17    42   1
    47    17    43   1
    48    18    44   1
    49    19    45   1
    50    25    46   1
    51    25    47   1
    52    26    48   1
    53    26    49   1
    54    27    50   1
    55    27    51   1
    56    29    52   1
    57    29    53   1
    58    29    54   1
    59    30    55   1
    60    30    56   1
    61    30    57   1
    62    31    58   1
    63    31    59   1
    64    31    60   1
@<TRIPOS>SUBSTRUCTURE
     1  Y5H      1

