@<TRIPOS>MOLECULE
2y5h_ligand_060
    60    64
SMALL
GAST_HUCK
****
This file was generated by PARSER (from files_GN.cpp)

@<TRIPOS>ATOM
      1 CL1       -10.1543   10.2492   17.7413 Cl          1 Y5H      -0.0522
      2 C25        -8.5091   10.6310   17.8022 C.2         1 Y5H       0.0990
      3 C24        -7.5064   10.1046   16.9849 C.2         1 Y5H      -0.0555
      4 C22        -6.2208   10.6019   17.2545 C.2         1 Y5H      -0.0588
      5 S1         -7.7651   11.7396   18.8814 S.3         1 Y5H      -0.0195
      6 C20        -6.1613   11.5418   18.2916 C.2         1 Y5H       0.0881
      7 C17        -5.0066   12.1896   18.7616 C.2         1 Y5H       0.1971
      8 N16        -4.9628   13.0892   19.7639 N.2         1 Y5H      -0.3009
      9 O10        -3.7635   11.9786   18.2769 O.3         1 Y5H      -0.2447
     10 C9         -2.9305   12.7616   18.9914 C.2         1 Y5H       0.0987
     11 C4         -3.6813   13.4625   19.9316 C.2         1 Y5H       0.0610
     12 C1         -3.2104   14.4146   20.9745 C.3         1 Y5H       0.0342
     13 N3         -2.2889   15.4374   20.4069 N.4         1 Y5H       0.2526
     14 C7         -0.8991   15.0371   20.7095 C.3         1 Y5H       0.0038
     15 C14        -0.0662   16.3455   20.6963 C.3         1 Y5H      -0.0022
     16 C15        -1.0952   17.4811   20.5571 C.3         1 Y5H      -0.0072
     17 C8         -2.4326   16.8240   20.9192 C.3         1 Y5H      -0.0298
     18 C5         -0.9869   14.2736   22.0644 C.3         1 Y5H       0.1231
     19 C2         -2.4417   13.7856   22.1775 C.3         1 Y5H       0.1287
     20 C6         -2.2712   12.3530   22.2681 C.2         1 Y5H       0.2198
     21 O13        -3.2442   11.6124   22.3301 O.2         1 Y5H      -0.3852
     22 C11        -0.2359   13.0469   22.1615 C.2         1 Y5H       0.2184
     23 O18         0.9837   13.0414   22.0808 O.2         1 Y5H      -0.3853
     24 N12        -1.0027   11.9758   22.3025 N.am        1 Y5H      -0.1843
     25 C19        -0.5094   10.6086   22.3484 C.3         1 Y5H       0.0635
     26 C21        -1.2509    9.5616   23.2374 C.3         1 Y5H       0.0123
     27 C23        -1.6263    9.9763   24.7016 C.3         1 Y5H      -0.0286
     28 N29        -0.8228    9.4499   25.8834 N.4         1 Y5H       0.2369
     29 C32        -1.4952    9.9333   27.1500 C.3         1 Y5H      -0.0418
     30 C31         0.5924    9.9614   25.8439 C.3         1 Y5H      -0.0418
     31 C30        -0.7923    7.9409   25.9251 C.3         1 Y5H      -0.0418
     32 H1         -7.6914    9.4178   16.2520 H           1 Y5H       0.0446
     33 H2         -5.3989   10.2970   16.7303 H           1 Y5H       0.0483
     34 H3         -1.9184   12.8059   18.8569 H           1 Y5H       0.0892
     35 H4         -4.1103   14.9028   21.3660 H           1 Y5H       0.1004
     36 H5         -2.4098   15.4778   19.3917 H           1 Y5H       0.2053
     37 H6         -0.5445   14.3744   19.9153 H           1 Y5H       0.0882
     38 H7          0.6216   16.3545   19.8507 H           1 Y5H       0.0323
     39 H8          0.5153   16.4597   21.6105 H           1 Y5H       0.0323
     40 H9         -1.1288   17.8388   19.5243 H           1 Y5H       0.0319
     41 H10        -0.8681   18.3229   21.2151 H           1 Y5H       0.0319
     42 H11        -2.5718   16.8459   22.0071 H           1 Y5H       0.0815
     43 H12        -3.2718   17.3385   20.4441 H           1 Y5H       0.0815
     44 H13        -0.7416   14.9298   22.9103 H           1 Y5H       0.0632
     45 H14        -2.8742   14.1400   23.1196 H           1 Y5H       0.0648
     46 H15         0.5371   10.5906   22.6581 H           1 Y5H       0.0578
     47 H16        -0.5311   10.2259   21.3192 H           1 Y5H       0.0578
     48 H17        -0.6427    8.6530   23.2667 H           1 Y5H       0.0340
     49 H18        -2.1669    9.2842   22.7108 H           1 Y5H       0.0340
     50 H19        -2.6708    9.6696   24.8429 H           1 Y5H       0.0816
     51 H20        -1.6423   11.0703   24.7468 H           1 Y5H       0.0816
     52 H21        -0.9399    9.6300   28.0466 H           1 Y5H       0.0778
     53 H22        -2.5128    9.5338   27.2452 H           1 Y5H       0.0778
     54 H23        -1.5762   11.0275   27.1689 H           1 Y5H       0.0778
     55 H24         1.1269    9.5840   24.9633 H           1 Y5H       0.0778
     56 H25         1.1571    9.6415   26.7276 H           1 Y5H       0.0778
     57 H26         0.6223   11.0576   25.8060 H           1 Y5H       0.0778
     58 H27        -1.8006    7.5275   25.8659 H           1 Y5H       0.0778
     59 H28        -0.3537    7.5748   26.8629 H           1 Y5H       0.0778
     60 H29        -0.2124    7.5167   25.0987 H           1 Y5H       0.0778
@<TRIPOS>BOND
     1     1     2   1
     2     2     3   2
     3     2     5   1
     4     3     4   1
     5     4     6   2
     6     5     6   1
     7     6     7   1
     8     7     8   2
     9     7     9   1
    10     8    11   1
    11     9    10   1
    12    10    11   2
    13    11    12   1
    14    12    13   1
    15    12    19   1
    16    13    14   1
    17    13    17   1
    18    14    15   1
    19    14    18   1
    20    15    16   1
    21    16    17   1
    22    18    19   1
    23    18    22   1
    24    19    20   1
    25    20    21   2
    26    20    24  am
    27    22    23   2
    28    22    24  am
    29    24    25   1
    30    25    26   1
    31    26    27   1
    32    27    28   1
    33    28    29   1
    34    28    30   1
    35    28    31   1
    36     3    32   1
    37     4    33   1
    38    10    34   1
    39    12    35   1
    40    13    36   1
    41    14    37   1
    42    15    38   1
    43    15    39   1
    44    16    40   1
    45    16    41   1
    46    17    42   1
    47    17    43   1
    48    18    44   1
    49    19    45   1
    50    25    46   1
    51    25    47   1
    52    26    48   1
    53    26    49   1
    54    27    50   1
    55    27    51   1
    56    29    52   1
    57    29    53   1
    58    29    54   1
    59    30    55   1
    60    30    56   1
    61    30    57   1
    62    31    58   1
    63    31    59   1
    64    31    60   1
@<TRIPOS>SUBSTRUCTURE
     1  Y5H      1

