@<TRIPOS>MOLECULE
2y5h_ligand_035
    60    64
SMALL
GAST_HUCK
****
This file was generated by PARSER (from files_GN.cpp)

@<TRIPOS>ATOM
      1 CL1         0.8942   19.1999   20.5470 Cl          1 Y5H      -0.0522
      2 C25         0.9480   17.5702   20.9791 C.2         1 Y5H       0.0990
      3 C24         1.9879   16.9090   21.6350 C.2         1 Y5H      -0.0555
      4 C22         1.7551   15.5393   21.8583 C.2         1 Y5H      -0.0588
      5 S1         -0.2823   16.4119   20.6690 S.3         1 Y5H      -0.0195
      6 C20         0.5281   15.0689   21.3733 C.2         1 Y5H       0.0881
      7 C17         0.0582   13.7485   21.4018 C.2         1 Y5H       0.1971
      8 N16        -1.1619   13.3602   20.9840 N.2         1 Y5H      -0.3009
      9 O10         0.7712   12.6776   21.8164 O.3         1 Y5H      -0.2447
     10 C9         -0.0177   11.6002   21.6321 C.2         1 Y5H       0.0987
     11 C4         -1.2446   12.0282   21.1314 C.2         1 Y5H       0.0610
     12 C1         -2.4154   11.1749   20.7861 C.3         1 Y5H       0.0342
     13 N3         -3.4598   11.9674   20.0789 N.4         1 Y5H       0.2526
     14 C7         -4.5090   12.3497   21.0437 C.3         1 Y5H       0.0038
     15 C14        -5.8069   12.5436   20.2160 C.3         1 Y5H      -0.0022
     16 C15        -5.4251   12.1589   18.7756 C.3         1 Y5H      -0.0072
     17 C8         -4.1507   11.3227   18.9404 C.3         1 Y5H      -0.0298
     18 C5         -4.5240   11.2113   22.0994 C.3         1 Y5H       0.1231
     19 C2         -3.1643   10.4998   21.9820 C.3         1 Y5H       0.1287
     20 C6         -2.6446   10.6329   23.3250 C.2         1 Y5H       0.2198
     21 O13        -1.5574   10.1668   23.6364 O.2         1 Y5H      -0.3852
     22 C11        -4.5439   11.6340   23.4724 C.2         1 Y5H       0.2184
     23 O18        -5.4995   12.2489   23.9334 O.2         1 Y5H      -0.3853
     24 N12        -3.4652   11.2707   24.1466 N.am        1 Y5H      -0.1843
     25 C19        -3.2240   11.6381   25.5279 C.3         1 Y5H       0.0635
     26 C21        -2.2544   10.7761   26.3852 C.3         1 Y5H       0.0123
     27 C23        -2.5955    9.2523   26.4228 C.3         1 Y5H      -0.0286
     28 N29        -2.1166    8.4346   27.6116 N.4         1 Y5H       0.2369
     29 C32        -2.3276    6.9662   27.3290 C.3         1 Y5H      -0.0418
     30 C31        -2.9183    8.7867   28.8420 C.3         1 Y5H      -0.0418
     31 C30        -0.6428    8.6414   27.8618 C.3         1 Y5H      -0.0418
     32 H1          2.8475   17.3776   21.9284 H           1 Y5H       0.0446
     33 H2          2.4382   14.9382   22.3229 H           1 Y5H       0.0483
     34 H3          0.2480   10.6376   21.8425 H           1 Y5H       0.0892
     35 H4         -2.0294   10.3959   20.1162 H           1 Y5H       0.1004
     36 H5         -3.0385   12.8235   19.7145 H           1 Y5H       0.2053
     37 H6         -4.2170   13.2991   21.5063 H           1 Y5H       0.0882
     38 H7         -6.1487   13.5813   20.2507 H           1 Y5H       0.0323
     39 H8         -6.6205   11.9091   20.5742 H           1 Y5H       0.0323
     40 H9         -5.2040   13.0566   18.1903 H           1 Y5H       0.0319
     41 H10        -6.2158   11.5938   18.2756 H           1 Y5H       0.0319
     42 H11        -4.4089   10.2813   19.1580 H           1 Y5H       0.0815
     43 H12        -3.5368   11.3622   18.0394 H           1 Y5H       0.0815
     44 H13        -5.3378   10.5024   21.9224 H           1 Y5H       0.0632
     45 H14        -3.3238    9.4357   21.7689 H           1 Y5H       0.0648
     46 H15        -4.1767   11.6317   26.0739 H           1 Y5H       0.0578
     47 H16        -2.8551   12.6692   25.5364 H           1 Y5H       0.0578
     48 H17        -2.2799   11.1880   27.3931 H           1 Y5H       0.0340
     49 H18        -1.2303   10.9149   26.0207 H           1 Y5H       0.0340
     50 H19        -2.1781    8.8147   25.5161 H           1 Y5H       0.0816
     51 H20        -3.6812    9.1476   26.3281 H           1 Y5H       0.0816
     52 H21        -2.0453    6.3458   28.1836 H           1 Y5H       0.0778
     53 H22        -1.7207    6.6387   26.4808 H           1 Y5H       0.0778
     54 H23        -3.3732    6.7501   27.0996 H           1 Y5H       0.0778
     55 H24        -2.7765    9.8286   29.1396 H           1 Y5H       0.0778
     56 H25        -2.6317    8.1641   29.6921 H           1 Y5H       0.0778
     57 H26        -3.9911    8.6381   28.6725 H           1 Y5H       0.0778
     58 H27        -0.0514    8.3882   26.9748 H           1 Y5H       0.0778
     59 H28        -0.2876    8.0146   28.6855 H           1 Y5H       0.0778
     60 H29        -0.4140    9.6752   28.1218 H           1 Y5H       0.0778
@<TRIPOS>BOND
     1     1     2   1
     2     2     3   2
     3     2     5   1
     4     3     4   1
     5     4     6   2
     6     5     6   1
     7     6     7   1
     8     7     8   2
     9     7     9   1
    10     8    11   1
    11     9    10   1
    12    10    11   2
    13    11    12   1
    14    12    13   1
    15    12    19   1
    16    13    14   1
    17    13    17   1
    18    14    15   1
    19    14    18   1
    20    15    16   1
    21    16    17   1
    22    18    19   1
    23    18    22   1
    24    19    20   1
    25    20    21   2
    26    20    24  am
    27    22    23   2
    28    22    24  am
    29    24    25   1
    30    25    26   1
    31    26    27   1
    32    27    28   1
    33    28    29   1
    34    28    30   1
    35    28    31   1
    36     3    32   1
    37     4    33   1
    38    10    34   1
    39    12    35   1
    40    13    36   1
    41    14    37   1
    42    15    38   1
    43    15    39   1
    44    16    40   1
    45    16    41   1
    46    17    42   1
    47    17    43   1
    48    18    44   1
    49    19    45   1
    50    25    46   1
    51    25    47   1
    52    26    48   1
    53    26    49   1
    54    27    50   1
    55    27    51   1
    56    29    52   1
    57    29    53   1
    58    29    54   1
    59    30    55   1
    60    30    56   1
    61    30    57   1
    62    31    58   1
    63    31    59   1
    64    31    60   1
@<TRIPOS>SUBSTRUCTURE
     1  Y5H      1

