@<TRIPOS>MOLECULE
2y5h_ligand_033
    60    64
SMALL
GAST_HUCK
****
This file was generated by PARSER (from files_GN.cpp)

@<TRIPOS>ATOM
      1 CL1        -4.0553   22.4327   23.5805 Cl          1 Y5H      -0.0522
      2 C25        -4.4755   20.8017   23.6591 C.2         1 Y5H       0.0990
      3 C24        -5.6731   20.2682   24.1451 C.2         1 Y5H      -0.0555
      4 C22        -5.7449   18.8675   24.0950 C.2         1 Y5H      -0.0588
      5 S1         -3.4899   19.4840   23.1623 S.3         1 Y5H      -0.0195
      6 C20        -4.6097   18.2409   23.5690 C.2         1 Y5H       0.0881
      7 C17        -4.4073   16.8625   23.4144 C.2         1 Y5H       0.1971
      8 N16        -3.3063   16.2917   22.8908 N.2         1 Y5H      -0.3009
      9 O10        -5.2941   15.9088   23.7802 O.3         1 Y5H      -0.2447
     10 C9         -4.7299   14.7216   23.4785 C.2         1 Y5H       0.0987
     11 C4         -3.4742   14.9632   22.9290 C.2         1 Y5H       0.0610
     12 C1         -2.5075   13.9651   22.4114 C.3         1 Y5H       0.0342
     13 N3         -3.1415   13.0988   21.3770 N.4         1 Y5H       0.2526
     14 C7         -2.3588   11.8553   21.3092 C.3         1 Y5H       0.0038
     15 C14        -1.3587   12.0819   20.1571 C.3         1 Y5H      -0.0022
     16 C15        -2.2017   12.8619   19.1360 C.3         1 Y5H      -0.0072
     17 C8         -3.2274   13.6390   19.9923 C.3         1 Y5H      -0.0298
     18 C5         -1.7474   11.6486   22.7172 C.3         1 Y5H       0.1231
     19 C2         -1.8526   13.0013   23.4467 C.3         1 Y5H       0.1287
     20 C6         -2.5735   12.6392   24.6479 C.2         1 Y5H       0.2198
     21 O13        -2.7819   13.4503   25.5417 O.2         1 Y5H      -0.3852
     22 C11        -2.5148   10.7756   23.5738 C.2         1 Y5H       0.2184
     23 O18        -2.7352    9.6081   23.2742 O.2         1 Y5H      -0.3853
     24 N12        -2.9074   11.3610   24.6916 N.am        1 Y5H      -0.1843
     25 C19        -3.5864   10.7119   25.7984 C.3         1 Y5H       0.0635
     26 C21        -2.6139   10.0479   26.8260 C.3         1 Y5H       0.0123
     27 C23        -2.1764    8.5861   26.4670 C.3         1 Y5H      -0.0286
     28 N29        -1.0663    7.9017   27.2468 N.4         1 Y5H       0.2369
     29 C32        -0.5489    6.7374   26.4282 C.3         1 Y5H      -0.0418
     30 C31        -1.5725    7.3655   28.5635 C.3         1 Y5H      -0.0418
     31 C30         0.0811    8.8444   27.5021 C.3         1 Y5H      -0.0418
     32 H1         -6.4314   20.8489   24.5059 H           1 Y5H       0.0446
     33 H2         -6.5655   18.3508   24.4203 H           1 Y5H       0.0483
     34 H3         -5.1605   13.8099   23.6302 H           1 Y5H       0.0892
     35 H4         -1.6793   14.5221   21.9541 H           1 Y5H       0.1004
     36 H5         -4.0816   12.8564   21.6975 H           1 Y5H       0.2053
     37 H6         -3.0216   11.0258   21.0337 H           1 Y5H       0.0882
     38 H7         -0.9894   11.1380   19.7492 H           1 Y5H       0.0323
     39 H8         -0.5085   12.6888   20.4809 H           1 Y5H       0.0323
     40 H9         -2.7196   12.1633   18.4702 H           1 Y5H       0.0319
     41 H10        -1.5828   13.5317   18.5326 H           1 Y5H       0.0319
     42 H11        -3.0275   14.7141   19.9510 H           1 Y5H       0.0815
     43 H12        -4.2385   13.4722   19.6123 H           1 Y5H       0.0815
     44 H13        -0.7159   11.2815   22.6644 H           1 Y5H       0.0632
     45 H14        -0.8553   13.3551   23.7289 H           1 Y5H       0.0648
     46 H15        -4.2955    9.9697   25.4247 H           1 Y5H       0.0578
     47 H16        -4.1843   11.4555   26.3407 H           1 Y5H       0.0578
     48 H17        -3.1198   10.0230   27.7912 H           1 Y5H       0.0340
     49 H18        -1.7365   10.6968   26.9290 H           1 Y5H       0.0340
     50 H19        -1.9018    8.5971   25.3978 H           1 Y5H       0.0816
     51 H20        -3.0835    7.9753   26.5484 H           1 Y5H       0.0816
     52 H21         0.2429    6.1912   26.9487 H           1 Y5H       0.0778
     53 H22        -0.1417    7.0665   25.4692 H           1 Y5H       0.0778
     54 H23        -1.3423    6.0194   26.2130 H           1 Y5H       0.0778
     55 H24        -1.9733    8.1607   29.1987 H           1 Y5H       0.0778
     56 H25        -0.7750    6.8786   29.1336 H           1 Y5H       0.0778
     57 H26        -2.3703    6.6292   28.4193 H           1 Y5H       0.0778
     58 H27         0.4167    9.3217   26.5765 H           1 Y5H       0.0778
     59 H28         0.9460    8.3244   27.9328 H           1 Y5H       0.0778
     60 H29        -0.2000    9.6388   28.1957 H           1 Y5H       0.0778
@<TRIPOS>BOND
     1     1     2   1
     2     2     3   2
     3     2     5   1
     4     3     4   1
     5     4     6   2
     6     5     6   1
     7     6     7   1
     8     7     8   2
     9     7     9   1
    10     8    11   1
    11     9    10   1
    12    10    11   2
    13    11    12   1
    14    12    13   1
    15    12    19   1
    16    13    14   1
    17    13    17   1
    18    14    15   1
    19    14    18   1
    20    15    16   1
    21    16    17   1
    22    18    19   1
    23    18    22   1
    24    19    20   1
    25    20    21   2
    26    20    24  am
    27    22    23   2
    28    22    24  am
    29    24    25   1
    30    25    26   1
    31    26    27   1
    32    27    28   1
    33    28    29   1
    34    28    30   1
    35    28    31   1
    36     3    32   1
    37     4    33   1
    38    10    34   1
    39    12    35   1
    40    13    36   1
    41    14    37   1
    42    15    38   1
    43    15    39   1
    44    16    40   1
    45    16    41   1
    46    17    42   1
    47    17    43   1
    48    18    44   1
    49    19    45   1
    50    25    46   1
    51    25    47   1
    52    26    48   1
    53    26    49   1
    54    27    50   1
    55    27    51   1
    56    29    52   1
    57    29    53   1
    58    29    54   1
    59    30    55   1
    60    30    56   1
    61    30    57   1
    62    31    58   1
    63    31    59   1
    64    31    60   1
@<TRIPOS>SUBSTRUCTURE
     1  Y5H      1

