@<TRIPOS>MOLECULE
2y5h_ligand_012
    60    64
SMALL
GAST_HUCK
****
This file was generated by PARSER (from files_GN.cpp)

@<TRIPOS>ATOM
      1 CL1         3.5017   19.2888   21.0732 Cl          1 Y5H      -0.0522
      2 C25         2.9347   17.8261   21.7023 C.2         1 Y5H       0.0990
      3 C24         3.6381   16.9475   22.5277 C.2         1 Y5H      -0.0555
      4 C22         2.9191   15.8001   22.9045 C.2         1 Y5H      -0.0588
      5 S1          1.3791   17.1475   21.4401 S.3         1 Y5H      -0.0195
      6 C20         1.6164   15.7329   22.3890 C.2         1 Y5H       0.0881
      7 C17         0.6798   14.7174   22.6053 C.2         1 Y5H       0.1971
      8 N16        -0.5500   14.6706   22.0671 N.2         1 Y5H      -0.3009
      9 O10         0.8716   13.6325   23.3817 O.3         1 Y5H      -0.2447
     10 C9         -0.2709   12.9136   23.3286 C.2         1 Y5H       0.0987
     11 C4         -1.1804   13.5577   22.4916 C.2         1 Y5H       0.0610
     12 C1         -2.5763   13.2354   22.0467 C.3         1 Y5H       0.0342
     13 N3         -3.5147   14.3004   22.5162 N.4         1 Y5H       0.2526
     14 C7         -4.8772   13.7423   22.4991 C.3         1 Y5H       0.0038
     15 C14        -5.4784   14.1759   21.1464 C.3         1 Y5H      -0.0022
     16 C15        -4.9099   15.5894   20.9625 C.3         1 Y5H      -0.0072
     17 C8         -3.5768   15.5743   21.7415 C.3         1 Y5H      -0.0298
     18 C5         -4.7435   12.2137   22.6908 C.3         1 Y5H       0.1231
     19 C2         -3.2790   11.8694   22.3700 C.3         1 Y5H       0.1287
     20 C6         -2.9041   11.1237   23.5489 C.2         1 Y5H       0.2198
     21 O13        -1.9993   10.3084   23.4932 O.2         1 Y5H      -0.3852
     22 C11        -4.8820   11.7826   24.0544 C.2         1 Y5H       0.2184
     23 O18        -5.9486   11.8918   24.6479 O.2         1 Y5H      -0.3853
     24 N12        -3.8075   11.1666   24.5153 N.am        1 Y5H      -0.1843
     25 C19        -3.7383   10.6347   25.8641 C.3         1 Y5H       0.0635
     26 C21        -2.3845   10.1395   26.4670 C.3         1 Y5H       0.0123
     27 C23        -2.0737    8.6177   26.2905 C.3         1 Y5H      -0.0286
     28 N29        -0.9832    7.9868   27.1599 N.4         1 Y5H       0.2369
     29 C32        -0.4006    6.7866   26.4485 C.3         1 Y5H      -0.0418
     30 C31        -1.5762    7.5122   28.4691 C.3         1 Y5H      -0.0418
     31 C30         0.1434    8.9463   27.4492 C.3         1 Y5H      -0.0418
     32 H1          4.6002   17.1244   22.8317 H           1 Y5H       0.0446
     33 H2          3.3206   15.0790   23.5011 H           1 Y5H       0.0483
     34 H3         -0.3844   12.0503   23.8410 H           1 Y5H       0.0892
     35 H4         -2.5303   13.2730   20.9518 H           1 Y5H       0.1004
     36 H5         -3.2806   14.5189   23.4872 H           1 Y5H       0.2053
     37 H6         -5.4663   14.1997   23.3034 H           1 Y5H       0.0882
     38 H7         -6.5727   14.1714   21.1689 H           1 Y5H       0.0323
     39 H8         -5.1323   13.5272   20.3339 H           1 Y5H       0.0323
     40 H9         -5.5969   16.3245   21.3929 H           1 Y5H       0.0319
     41 H10        -4.7634   15.8205   19.9030 H           1 Y5H       0.0319
     42 H11        -2.7466   15.6856   21.0436 H           1 Y5H       0.0815
     43 H12        -3.5422   16.4140   22.4393 H           1 Y5H       0.0815
     44 H13        -5.4454   11.6562   22.0592 H           1 Y5H       0.0632
     45 H14        -3.2421   11.2104   21.4941 H           1 Y5H       0.0648
     46 H15        -4.4823    9.8418   25.9637 H           1 Y5H       0.0578
     47 H16        -4.0721   11.4410   26.5261 H           1 Y5H       0.0578
     48 H17        -2.3979   10.3530   27.5391 H           1 Y5H       0.0340
     49 H18        -1.5712   10.7288   26.0405 H           1 Y5H       0.0340
     50 H19        -1.8299    8.4761   25.2359 H           1 Y5H       0.0816
     51 H20        -3.0104    8.0675   26.4553 H           1 Y5H       0.0816
     52 H21         0.3749    6.3004   27.0459 H           1 Y5H       0.0778
     53 H22         0.0528    7.0704   25.4957 H           1 Y5H       0.0778
     54 H23        -1.1619    6.0328   26.2387 H           1 Y5H       0.0778
     55 H24        -2.0170    8.3345   29.0375 H           1 Y5H       0.0778
     56 H25        -0.8239    7.0432   29.1119 H           1 Y5H       0.0778
     57 H26        -2.3688    6.7704   28.3101 H           1 Y5H       0.0778
     58 H27         0.5818    9.3233   26.5250 H           1 Y5H       0.0778
     59 H28         0.9398    8.4720   28.0264 H           1 Y5H       0.0778
     60 H29        -0.2023    9.8029   28.0253 H           1 Y5H       0.0778
@<TRIPOS>BOND
     1     1     2   1
     2     2     3   2
     3     2     5   1
     4     3     4   1
     5     4     6   2
     6     5     6   1
     7     6     7   1
     8     7     8   2
     9     7     9   1
    10     8    11   1
    11     9    10   1
    12    10    11   2
    13    11    12   1
    14    12    13   1
    15    12    19   1
    16    13    14   1
    17    13    17   1
    18    14    15   1
    19    14    18   1
    20    15    16   1
    21    16    17   1
    22    18    19   1
    23    18    22   1
    24    19    20   1
    25    20    21   2
    26    20    24  am
    27    22    23   2
    28    22    24  am
    29    24    25   1
    30    25    26   1
    31    26    27   1
    32    27    28   1
    33    28    29   1
    34    28    30   1
    35    28    31   1
    36     3    32   1
    37     4    33   1
    38    10    34   1
    39    12    35   1
    40    13    36   1
    41    14    37   1
    42    15    38   1
    43    15    39   1
    44    16    40   1
    45    16    41   1
    46    17    42   1
    47    17    43   1
    48    18    44   1
    49    19    45   1
    50    25    46   1
    51    25    47   1
    52    26    48   1
    53    26    49   1
    54    27    50   1
    55    27    51   1
    56    29    52   1
    57    29    53   1
    58    29    54   1
    59    30    55   1
    60    30    56   1
    61    30    57   1
    62    31    58   1
    63    31    59   1
    64    31    60   1
@<TRIPOS>SUBSTRUCTURE
     1  Y5H      1

