@<TRIPOS>MOLECULE
2y5h_ligand_071
    60    64
SMALL
GAST_HUCK
****
This file was generated by PARSER (from files_GN.cpp)

@<TRIPOS>ATOM
      1 CL1        -4.6157   15.7935   27.5327 Cl          1 Y5H      -0.0522
      2 C25        -4.8236   15.9989   25.8744 C.2         1 Y5H       0.0990
      3 C24        -5.3114   17.1253   25.2050 C.2         1 Y5H      -0.0555
      4 C22        -5.3531   16.9960   23.8063 C.2         1 Y5H      -0.0588
      5 S1         -4.4357   14.8230   24.6854 S.3         1 Y5H      -0.0195
      6 C20        -4.8984   15.7635   23.3187 C.2         1 Y5H       0.0881
      7 C17        -4.7780   15.3543   21.9861 C.2         1 Y5H       0.1971
      8 N16        -4.2489   14.1759   21.6127 N.2         1 Y5H      -0.3009
      9 O10        -5.1044   16.0758   20.8909 O.3         1 Y5H      -0.2447
     10 C9         -4.7676   15.3263   19.8213 C.2         1 Y5H       0.0987
     11 C4         -4.2049   14.1360   20.2731 C.2         1 Y5H       0.0610
     12 C1         -3.6405   13.0533   19.4219 C.3         1 Y5H       0.0342
     13 N3         -4.7568   12.1878   18.9578 N.4         1 Y5H       0.2526
     14 C7         -4.7928   10.9695   19.7933 C.3         1 Y5H       0.0038
     15 C14        -5.4104    9.8537   18.9070 C.3         1 Y5H      -0.0022
     16 C15        -5.6465   10.5115   17.5352 C.3         1 Y5H      -0.0072
     17 C8         -4.7222   11.7362   17.5490 C.3         1 Y5H      -0.0298
     18 C5         -3.3313   10.7375   20.2731 C.3         1 Y5H       0.1231
     19 C2         -2.5975   12.0704   20.0470 C.3         1 Y5H       0.1287
     20 C6         -2.0621   12.3486   21.3569 C.2         1 Y5H       0.2198
     21 O13        -1.3805   13.3377   21.5802 O.2         1 Y5H      -0.3852
     22 C11        -3.1610   10.5175   21.6887 C.2         1 Y5H       0.2184
     23 O18        -3.5943    9.5161   22.2448 O.2         1 Y5H      -0.3853
     24 N12        -2.4515   11.4696   22.2684 N.am        1 Y5H      -0.1843
     25 C19        -2.1614   11.5592   23.6848 C.3         1 Y5H       0.0635
     26 C21        -0.6470   11.3954   23.9937 C.3         1 Y5H       0.0123
     27 C23        -0.2832   10.8275   25.4038 C.3         1 Y5H      -0.0286
     28 N29        -0.2274    9.3259   25.6648 N.4         1 Y5H       0.2369
     29 C32         0.7342    8.6299   24.7307 C.3         1 Y5H      -0.0418
     30 C31        -1.5867    8.6900   25.5268 C.3         1 Y5H      -0.0418
     31 C30         0.2519    9.1068   27.0857 C.3         1 Y5H      -0.0418
     32 H1         -5.6065   17.9754   25.6955 H           1 Y5H       0.0446
     33 H2         -5.6797   17.7498   23.1976 H           1 Y5H       0.0483
     34 H3         -4.8814   15.6038   18.8456 H           1 Y5H       0.0892
     35 H4         -3.1605   13.5534   18.5729 H           1 Y5H       0.1004
     36 H5         -5.6415   12.6846   19.0863 H           1 Y5H       0.2053
     37 H6         -5.4526   11.1682   20.6442 H           1 Y5H       0.0882
     38 H7         -6.3561    9.4972   19.3242 H           1 Y5H       0.0323
     39 H8         -4.7416    8.9959   18.8003 H           1 Y5H       0.0323
     40 H9         -6.6881   10.8344   17.4441 H           1 Y5H       0.0319
     41 H10        -5.4077    9.8363   16.7091 H           1 Y5H       0.0319
     42 H11        -3.7133   11.4431   17.2414 H           1 Y5H       0.0815
     43 H12        -5.0883   12.5186   16.8795 H           1 Y5H       0.0815
     44 H13        -2.8330    9.9402   19.7148 H           1 Y5H       0.0632
     45 H14        -1.7608   11.9245   19.3544 H           1 Y5H       0.0648
     46 H15        -2.7294   10.8203   24.2496 H           1 Y5H       0.0578
     47 H16        -2.4987   12.5337   24.0536 H           1 Y5H       0.0578
     48 H17        -0.2035   12.3940   23.9098 H           1 Y5H       0.0340
     49 H18        -0.1826   10.7877   23.2157 H           1 Y5H       0.0340
     50 H19        -0.9730   11.2863   26.1221 H           1 Y5H       0.0816
     51 H20         0.7048   11.2411   25.6377 H           1 Y5H       0.0816
     52 H21         0.8249    7.5651   24.9642 H           1 Y5H       0.0778
     53 H22         1.7338    9.0690   24.7938 H           1 Y5H       0.0778
     54 H23         0.4144    8.6880   23.6906 H           1 Y5H       0.0778
     55 H24        -2.3397    9.2110   26.1281 H           1 Y5H       0.0778
     56 H25        -1.5730    7.6462   25.8462 H           1 Y5H       0.0778
     57 H26        -1.9118    8.6981   24.4867 H           1 Y5H       0.0778
     58 H27         1.2559    9.5214   27.2383 H           1 Y5H       0.0778
     59 H28         0.2987    8.0447   27.3458 H           1 Y5H       0.0778
     60 H29        -0.4138    9.5863   27.8091 H           1 Y5H       0.0778
@<TRIPOS>BOND
     1     1     2   1
     2     2     3   2
     3     2     5   1
     4     3     4   1
     5     4     6   2
     6     5     6   1
     7     6     7   1
     8     7     8   2
     9     7     9   1
    10     8    11   1
    11     9    10   1
    12    10    11   2
    13    11    12   1
    14    12    13   1
    15    12    19   1
    16    13    14   1
    17    13    17   1
    18    14    15   1
    19    14    18   1
    20    15    16   1
    21    16    17   1
    22    18    19   1
    23    18    22   1
    24    19    20   1
    25    20    21   2
    26    20    24  am
    27    22    23   2
    28    22    24  am
    29    24    25   1
    30    25    26   1
    31    26    27   1
    32    27    28   1
    33    28    29   1
    34    28    30   1
    35    28    31   1
    36     3    32   1
    37     4    33   1
    38    10    34   1
    39    12    35   1
    40    13    36   1
    41    14    37   1
    42    15    38   1
    43    15    39   1
    44    16    40   1
    45    16    41   1
    46    17    42   1
    47    17    43   1
    48    18    44   1
    49    19    45   1
    50    25    46   1
    51    25    47   1
    52    26    48   1
    53    26    49   1
    54    27    50   1
    55    27    51   1
    56    29    52   1
    57    29    53   1
    58    29    54   1
    59    30    55   1
    60    30    56   1
    61    30    57   1
    62    31    58   1
    63    31    59   1
    64    31    60   1
@<TRIPOS>SUBSTRUCTURE
     1  Y5H      1

