@<TRIPOS>MOLECULE
2y5h_ligand_038
    60    64
SMALL
GAST_HUCK
****
This file was generated by PARSER (from files_GN.cpp)

@<TRIPOS>ATOM
      1 CL1       -11.2264   17.7363   19.6884 Cl          1 Y5H      -0.0522
      2 C25       -10.0363   16.5487   19.8390 C.2         1 Y5H       0.0990
      3 C24       -10.2255   15.1655   19.8142 C.2         1 Y5H      -0.0555
      4 C22        -9.0462   14.4159   19.9660 C.2         1 Y5H      -0.0588
      5 S1         -8.3568   16.8346   20.0568 S.3         1 Y5H      -0.0195
      6 C20        -7.8822   15.1809   20.1165 C.2         1 Y5H       0.0881
      7 C17        -6.5760   14.7077   20.2938 C.2         1 Y5H       0.1971
      8 N16        -5.4935   15.4883   20.4574 N.2         1 Y5H      -0.3009
      9 O10        -6.2210   13.4017   20.3432 O.3         1 Y5H      -0.2447
     10 C9         -4.8880   13.3733   20.5398 C.2         1 Y5H       0.0987
     11 C4         -4.4314   14.6854   20.6178 C.2         1 Y5H       0.0610
     12 C1         -3.0474   15.1600   20.8542 C.3         1 Y5H       0.0342
     13 N3         -2.0373   14.4714   20.0029 N.4         1 Y5H       0.2526
     14 C7         -0.7263   14.6887   20.6427 C.3         1 Y5H       0.0038
     15 C14        -0.1361   15.9229   19.9333 C.3         1 Y5H      -0.0022
     16 C15        -0.6140   15.7512   18.4838 C.3         1 Y5H      -0.0072
     17 C8         -1.9138   14.9215   18.5909 C.3         1 Y5H      -0.0298
     18 C5         -0.9978   14.8682   22.1602 C.3         1 Y5H       0.1231
     19 C2         -2.5214   15.0213   22.3099 C.3         1 Y5H       0.1287
     20 C6         -2.8713   13.8381   23.0657 C.2         1 Y5H       0.2198
     21 O13        -4.0093   13.6565   23.4769 O.2         1 Y5H      -0.3852
     22 C11        -0.7254   13.6898   22.9340 C.2         1 Y5H       0.2184
     23 O18         0.4286   13.3327   23.1337 O.2         1 Y5H      -0.3853
     24 N12        -1.8201   13.1062   23.3967 N.am        1 Y5H      -0.1843
     25 C19        -1.8568   11.9359   24.2487 C.3         1 Y5H       0.0635
     26 C21        -1.0491   10.7202   23.7084 C.3         1 Y5H       0.0123
     27 C23        -1.1625    9.3661   24.4790 C.3         1 Y5H      -0.0286
     28 N29        -0.5610    9.1735   25.8725 N.4         1 Y5H       0.2369
     29 C32         0.8100    9.7949   25.9951 C.3         1 Y5H      -0.0418
     30 C31        -0.4164    7.6853   26.1252 C.3         1 Y5H      -0.0418
     31 C30        -1.4573    9.7207   26.9571 C.3         1 Y5H      -0.0418
     32 H1        -11.1441   14.7331   19.6973 H           1 Y5H       0.0446
     33 H2         -9.0453   13.3937   19.9688 H           1 Y5H       0.0483
     34 H3         -4.3213   12.5287   20.6312 H           1 Y5H       0.0892
     35 H4         -3.0306   16.2328   20.6279 H           1 Y5H       0.1004
     36 H5         -2.2375   13.4682   20.0159 H           1 Y5H       0.2053
     37 H6         -0.0799   13.8238   20.4424 H           1 Y5H       0.0882
     38 H7          0.9525   15.9483   20.0063 H           1 Y5H       0.0323
     39 H8         -0.5441   16.8474   20.3522 H           1 Y5H       0.0323
     40 H9          0.1389   15.2048   17.9071 H           1 Y5H       0.0319
     41 H10        -0.7886   16.7203   18.0099 H           1 Y5H       0.0319
     42 H11        -2.7767   15.5105   18.2671 H           1 Y5H       0.0815
     43 H12        -1.8478   14.0412   17.9459 H           1 Y5H       0.0815
     44 H13        -0.4594   15.7218   22.5859 H           1 Y5H       0.0632
     45 H14        -2.7673   15.9113   22.9034 H           1 Y5H       0.0648
     46 H15        -2.8851   11.5993   24.4089 H           1 Y5H       0.0578
     47 H16        -1.4633   12.2490   25.2141 H           1 Y5H       0.0578
     48 H17         0.0085   10.9758   23.6563 H           1 Y5H       0.0340
     49 H18        -1.3837   10.5484   22.6809 H           1 Y5H       0.0340
     50 H19        -0.6803    8.6524   23.7962 H           1 Y5H       0.0816
     51 H20        -2.2200    9.0798   24.4890 H           1 Y5H       0.0816
     52 H21         1.2681    9.5806   26.9680 H           1 Y5H       0.0778
     53 H22         0.7689   10.8817   25.8926 H           1 Y5H       0.0778
     54 H23         1.4878    9.4141   25.2262 H           1 Y5H       0.0778
     55 H24        -1.3803    7.1733   26.0425 H           1 Y5H       0.0778
     56 H25        -0.0202    7.4794   27.1254 H           1 Y5H       0.0778
     57 H26         0.2653    7.2162   25.4055 H           1 Y5H       0.0778
     58 H27        -1.5741   10.8016   26.8918 H           1 Y5H       0.0778
     59 H28        -1.0531    9.5057   27.9517 H           1 Y5H       0.0778
     60 H29        -2.4540    9.2754   26.9085 H           1 Y5H       0.0778
@<TRIPOS>BOND
     1     1     2   1
     2     2     3   2
     3     2     5   1
     4     3     4   1
     5     4     6   2
     6     5     6   1
     7     6     7   1
     8     7     8   2
     9     7     9   1
    10     8    11   1
    11     9    10   1
    12    10    11   2
    13    11    12   1
    14    12    13   1
    15    12    19   1
    16    13    14   1
    17    13    17   1
    18    14    15   1
    19    14    18   1
    20    15    16   1
    21    16    17   1
    22    18    19   1
    23    18    22   1
    24    19    20   1
    25    20    21   2
    26    20    24  am
    27    22    23   2
    28    22    24  am
    29    24    25   1
    30    25    26   1
    31    26    27   1
    32    27    28   1
    33    28    29   1
    34    28    30   1
    35    28    31   1
    36     3    32   1
    37     4    33   1
    38    10    34   1
    39    12    35   1
    40    13    36   1
    41    14    37   1
    42    15    38   1
    43    15    39   1
    44    16    40   1
    45    16    41   1
    46    17    42   1
    47    17    43   1
    48    18    44   1
    49    19    45   1
    50    25    46   1
    51    25    47   1
    52    26    48   1
    53    26    49   1
    54    27    50   1
    55    27    51   1
    56    29    52   1
    57    29    53   1
    58    29    54   1
    59    30    55   1
    60    30    56   1
    61    30    57   1
    62    31    58   1
    63    31    59   1
    64    31    60   1
@<TRIPOS>SUBSTRUCTURE
     1  Y5H      1

