@<TRIPOS>MOLECULE
2y5h_ligand_032
    60    64
SMALL
GAST_HUCK
****
This file was generated by PARSER (from files_GN.cpp)

@<TRIPOS>ATOM
      1 CL1       -13.6466    0.3313   16.5683 Cl          1 Y5H      -0.0522
      2 C25       -13.1708    1.7484   15.7844 C.2         1 Y5H       0.0990
      3 C24       -13.7666    2.3461   14.6725 C.2         1 Y5H      -0.0555
      4 C22       -13.1456    3.5305   14.2406 C.2         1 Y5H      -0.0588
      5 S1        -11.8210    2.7169   16.2201 S.3         1 Y5H      -0.0195
      6 C20       -12.0276    3.9102   14.9981 C.2         1 Y5H       0.0881
      7 C17       -11.1722    5.0046   14.8160 C.2         1 Y5H       0.1971
      8 N16       -11.3102    6.0092   13.9248 N.2         1 Y5H      -0.3009
      9 O10       -10.0133    5.1336   15.4986 O.3         1 Y5H      -0.2447
     10 C9         -9.4168    6.2477   15.0267 C.2         1 Y5H       0.0987
     11 C4        -10.2318    6.8084   14.0523 C.2         1 Y5H       0.0610
     12 C1         -9.8776    7.9391   13.1502 C.3         1 Y5H       0.0342
     13 N3         -8.9263    7.4374   12.1169 N.4         1 Y5H       0.2526
     14 C7         -8.2298    8.6064   11.5615 C.3         1 Y5H       0.0038
     15 C14        -9.0714    9.0289   10.3366 C.3         1 Y5H      -0.0022
     16 C15        -9.6011    7.6964    9.7832 C.3         1 Y5H      -0.0072
     17 C8         -9.5177    6.7039   10.9667 C.3         1 Y5H      -0.0298
     18 C5         -8.1420    9.6410   12.7111 C.3         1 Y5H       0.1231
     19 C2         -9.2136    9.2269   13.7394 C.3         1 Y5H       0.1287
     20 C6         -8.4299    9.1031   14.9466 C.2         1 Y5H       0.2198
     21 O13        -8.9619    8.9385   16.0373 O.2         1 Y5H      -0.3852
     22 C11        -6.9278    9.5733   13.4822 C.2         1 Y5H       0.2184
     23 O18        -5.8363    9.8074   12.9775 O.2         1 Y5H      -0.3853
     24 N12        -7.1343    9.2836   14.7555 N.am        1 Y5H      -0.1843
     25 C19        -6.1026    9.1989   15.7730 C.3         1 Y5H       0.0635
     26 C21        -5.7907    7.7450   16.2576 C.3         1 Y5H       0.0123
     27 C23        -6.5843    7.2982   17.5249 C.3         1 Y5H      -0.0286
     28 N29        -6.4063    5.8841   18.0681 N.4         1 Y5H       0.2369
     29 C32        -4.9523    5.5459   18.2896 C.3         1 Y5H      -0.0418
     30 C31        -7.0190    4.8603   17.1381 C.3         1 Y5H      -0.0418
     31 C30        -7.1234    5.7926   19.3931 C.3         1 Y5H      -0.0418
     32 H1        -14.5844    1.9448   14.2041 H           1 Y5H       0.0446
     33 H2        -13.4738    4.0570   13.4291 H           1 Y5H       0.0483
     34 H3         -8.5003    6.5913   15.3152 H           1 Y5H       0.0892
     35 H4        -10.8072    8.2679   12.6655 H           1 Y5H       0.1004
     36 H5         -8.2356    6.8374   12.5811 H           1 Y5H       0.2053
     37 H6         -7.2331    8.3020   11.2165 H           1 Y5H       0.0882
     38 H7         -8.4658    9.5652    9.6015 H           1 Y5H       0.0323
     39 H8         -9.9055    9.6636   10.6410 H           1 Y5H       0.0323
     40 H9         -8.9748    7.3553    8.9535 H           1 Y5H       0.0319
     41 H10       -10.6283    7.8048    9.4231 H           1 Y5H       0.0319
     42 H11       -10.5066    6.2864   11.1930 H           1 Y5H       0.0815
     43 H12        -8.8613    5.8689   10.7111 H           1 Y5H       0.0815
     44 H13        -8.2863   10.6636   12.3490 H           1 Y5H       0.0632
     45 H14        -9.9551   10.0250   13.8608 H           1 Y5H       0.0648
     46 H15        -6.3764    9.8388   16.6200 H           1 Y5H       0.0578
     47 H16        -5.1665    9.6192   15.3842 H           1 Y5H       0.0578
     48 H17        -4.7248    7.6972   16.4944 H           1 Y5H       0.0340
     49 H18        -5.9711    7.0535   15.4344 H           1 Y5H       0.0340
     50 H19        -7.6477    7.4671   17.3281 H           1 Y5H       0.0816
     51 H20        -6.2988    8.0099   18.3104 H           1 Y5H       0.0816
     52 H21        -4.8384    4.5677   18.7678 H           1 Y5H       0.0778
     53 H22        -4.4654    6.2874   18.9306 H           1 Y5H       0.0778
     54 H23        -4.4079    5.5038   17.3422 H           1 Y5H       0.0778
     55 H24        -8.1059    5.0105   17.0430 H           1 Y5H       0.0778
     56 H25        -6.8491    3.8400   17.5033 H           1 Y5H       0.0778
     57 H26        -6.5861    4.9127   16.1386 H           1 Y5H       0.0778
     58 H27        -6.6790    6.4667   20.1299 H           1 Y5H       0.0778
     59 H28        -7.0808    4.7781   19.7944 H           1 Y5H       0.0778
     60 H29        -8.1790    6.0575   19.2946 H           1 Y5H       0.0778
@<TRIPOS>BOND
     1     1     2   1
     2     2     3   2
     3     2     5   1
     4     3     4   1
     5     4     6   2
     6     5     6   1
     7     6     7   1
     8     7     8   2
     9     7     9   1
    10     8    11   1
    11     9    10   1
    12    10    11   2
    13    11    12   1
    14    12    13   1
    15    12    19   1
    16    13    14   1
    17    13    17   1
    18    14    15   1
    19    14    18   1
    20    15    16   1
    21    16    17   1
    22    18    19   1
    23    18    22   1
    24    19    20   1
    25    20    21   2
    26    20    24  am
    27    22    23   2
    28    22    24  am
    29    24    25   1
    30    25    26   1
    31    26    27   1
    32    27    28   1
    33    28    29   1
    34    28    30   1
    35    28    31   1
    36     3    32   1
    37     4    33   1
    38    10    34   1
    39    12    35   1
    40    13    36   1
    41    14    37   1
    42    15    38   1
    43    15    39   1
    44    16    40   1
    45    16    41   1
    46    17    42   1
    47    17    43   1
    48    18    44   1
    49    19    45   1
    50    25    46   1
    51    25    47   1
    52    26    48   1
    53    26    49   1
    54    27    50   1
    55    27    51   1
    56    29    52   1
    57    29    53   1
    58    29    54   1
    59    30    55   1
    60    30    56   1
    61    30    57   1
    62    31    58   1
    63    31    59   1
    64    31    60   1
@<TRIPOS>SUBSTRUCTURE
     1  Y5H      1

