@<TRIPOS>MOLECULE
2y5h_ligand_054
    60    64
SMALL
GAST_HUCK
****
This file was generated by PARSER (from files_GN.cpp)

@<TRIPOS>ATOM
      1 CL1        -9.3421   15.4109   24.6581 Cl          1 Y5H      -0.0522
      2 C25        -8.5961   14.2317   23.7093 C.2         1 Y5H       0.0990
      3 C24        -9.1665   13.5274   22.6471 C.2         1 Y5H      -0.0555
      4 C22        -8.3069   12.5940   22.0412 C.2         1 Y5H      -0.0588
      5 S1         -6.9825   13.6719   23.8897 S.3         1 Y5H      -0.0195
      6 C20        -7.0264   12.5290   22.6032 C.2         1 Y5H       0.0881
      7 C17        -5.9781   11.6790   22.2272 C.2         1 Y5H       0.1971
      8 N16        -4.7630   11.6637   22.8015 N.2         1 Y5H      -0.3009
      9 O10        -6.0498   10.7285   21.2655 O.3         1 Y5H      -0.2447
     10 C9         -4.8532   10.1064   21.2485 C.2         1 Y5H       0.0987
     11 C4         -4.0407   10.6997   22.2085 C.2         1 Y5H       0.0610
     12 C1         -2.6547   10.3093   22.5627 C.3         1 Y5H       0.0342
     13 N3         -2.0670   11.1396   23.6509 N.4         1 Y5H       0.2526
     14 C7         -0.6047   10.9588   23.5882 C.3         1 Y5H       0.0038
     15 C14        -0.2959    9.8538   24.6249 C.3         1 Y5H      -0.0022
     16 C15        -1.3162   10.1200   25.7422 C.3         1 Y5H      -0.0072
     17 C8         -2.4912   10.8420   25.0466 C.3         1 Y5H      -0.0298
     18 C5         -0.2634   10.6155   22.1102 C.3         1 Y5H       0.1231
     19 C2         -1.6125   10.3635   21.4128 C.3         1 Y5H       0.1287
     20 C6         -1.6685   11.4551   20.4648 C.2         1 Y5H       0.2198
     21 O13        -2.6056   11.5868   19.6842 O.2         1 Y5H      -0.3852
     22 C11         0.2746   11.7080   21.3451 C.2         1 Y5H       0.2184
     23 O18         1.4108   12.1101   21.5504 O.2         1 Y5H      -0.3853
     24 N12        -0.5615   12.1735   20.4325 N.am        1 Y5H      -0.1843
     25 C19        -0.2737   13.2508   19.5078 C.3         1 Y5H       0.0635
     26 C21         0.1006   14.6074   20.1742 C.3         1 Y5H       0.0123
     27 C23        -1.0257   15.2661   21.0408 C.3         1 Y5H      -0.0286
     28 N29        -1.8133   16.4369   20.4701 N.4         1 Y5H       0.2369
     29 C32        -2.9148   16.8011   21.4430 C.3         1 Y5H      -0.0418
     30 C31        -2.4470   16.0747   19.1520 C.3         1 Y5H      -0.0418
     31 C30        -0.9351   17.6519   20.2904 C.3         1 Y5H      -0.0418
     32 H1        -10.1297   13.6744   22.3379 H           1 Y5H       0.0446
     33 H2         -8.6017   12.0108   21.2564 H           1 Y5H       0.0483
     34 H3         -4.5958    9.3361   20.6292 H           1 Y5H       0.0892
     35 H4         -2.7016    9.2677   22.8993 H           1 Y5H       0.1004
     36 H5         -2.2729   12.1200   23.4463 H           1 Y5H       0.2053
     37 H6         -0.1208   11.8894   23.9104 H           1 Y5H       0.0882
     38 H7          0.7318    9.9179   24.9928 H           1 Y5H       0.0323
     39 H8         -0.4646    8.8579   24.2032 H           1 Y5H       0.0323
     40 H9         -0.8739   10.7684   26.5030 H           1 Y5H       0.0319
     41 H10        -1.6368    9.1887   26.2173 H           1 Y5H       0.0319
     42 H11        -3.3965   10.2284   25.0860 H           1 Y5H       0.0815
     43 H12        -2.7026   11.7860   25.5579 H           1 Y5H       0.0815
     44 H13         0.3984    9.7468   22.0306 H           1 Y5H       0.0632
     45 H14        -1.6009    9.4142   20.8650 H           1 Y5H       0.0648
     46 H15        -1.1130   13.4241   18.8296 H           1 Y5H       0.0578
     47 H16         0.5583   12.9305   18.8774 H           1 Y5H       0.0578
     48 H17         0.4312   15.2822   19.3879 H           1 Y5H       0.0340
     49 H18         0.9793   14.4626   20.7993 H           1 Y5H       0.0340
     50 H19        -0.5528   15.5937   21.9748 H           1 Y5H       0.0816
     51 H20        -1.7212   14.4735   21.3397 H           1 Y5H       0.0816
     52 H21        -3.5029   17.6536   21.0910 H           1 Y5H       0.0778
     53 H22        -2.5118   17.0693   22.4231 H           1 Y5H       0.0778
     54 H23        -3.6101   15.9711   21.5930 H           1 Y5H       0.0778
     55 H24        -1.6969   15.8815   18.3852 H           1 Y5H       0.0778
     56 H25        -3.0730   16.8856   18.7725 H           1 Y5H       0.0778
     57 H26        -3.0736   15.1832   19.2428 H           1 Y5H       0.0778
     58 H27        -0.4607   17.9444   21.2293 H           1 Y5H       0.0778
     59 H28        -1.5066   18.5104   19.9290 H           1 Y5H       0.0778
     60 H29        -0.1415   17.4824   19.5648 H           1 Y5H       0.0778
@<TRIPOS>BOND
     1     1     2   1
     2     2     3   2
     3     2     5   1
     4     3     4   1
     5     4     6   2
     6     5     6   1
     7     6     7   1
     8     7     8   2
     9     7     9   1
    10     8    11   1
    11     9    10   1
    12    10    11   2
    13    11    12   1
    14    12    13   1
    15    12    19   1
    16    13    14   1
    17    13    17   1
    18    14    15   1
    19    14    18   1
    20    15    16   1
    21    16    17   1
    22    18    19   1
    23    18    22   1
    24    19    20   1
    25    20    21   2
    26    20    24  am
    27    22    23   2
    28    22    24  am
    29    24    25   1
    30    25    26   1
    31    26    27   1
    32    27    28   1
    33    28    29   1
    34    28    30   1
    35    28    31   1
    36     3    32   1
    37     4    33   1
    38    10    34   1
    39    12    35   1
    40    13    36   1
    41    14    37   1
    42    15    38   1
    43    15    39   1
    44    16    40   1
    45    16    41   1
    46    17    42   1
    47    17    43   1
    48    18    44   1
    49    19    45   1
    50    25    46   1
    51    25    47   1
    52    26    48   1
    53    26    49   1
    54    27    50   1
    55    27    51   1
    56    29    52   1
    57    29    53   1
    58    29    54   1
    59    30    55   1
    60    30    56   1
    61    30    57   1
    62    31    58   1
    63    31    59   1
    64    31    60   1
@<TRIPOS>SUBSTRUCTURE
     1  Y5H      1

