@<TRIPOS>MOLECULE
2y5h_ligand_051
    60    64
SMALL
GAST_HUCK
****
This file was generated by PARSER (from files_GN.cpp)

@<TRIPOS>ATOM
      1 CL1        -1.2935    6.6353   28.4200 Cl          1 Y5H      -0.0522
      2 C25        -1.2165    7.6392   27.0670 C.2         1 Y5H       0.0990
      3 C24        -0.4773    7.4304   25.8997 C.2         1 Y5H      -0.0555
      4 C22        -0.5780    8.4679   24.9610 C.2         1 Y5H      -0.0588
      5 S1         -2.0382    9.1379   26.8963 S.3         1 Y5H      -0.0195
      6 C20        -1.4294    9.5153   25.3328 C.2         1 Y5H       0.0881
      7 C17        -1.6964   10.6790   24.5912 C.2         1 Y5H       0.1971
      8 N16        -2.6242   11.6084   24.8874 N.2         1 Y5H      -0.3009
      9 O10        -0.9963   11.0561   23.4941 O.3         1 Y5H      -0.2447
     10 C9         -1.4965   12.2453   23.1171 C.2         1 Y5H       0.0987
     11 C4         -2.5365   12.5904   23.9759 C.2         1 Y5H       0.0610
     12 C1         -3.3190   13.8593   23.9681 C.3         1 Y5H       0.0342
     13 N3         -4.2328   13.9243   25.1525 N.4         1 Y5H       0.2526
     14 C7         -5.6103   13.6650   24.7059 C.3         1 Y5H       0.0038
     15 C14        -6.5478   14.3755   25.7176 C.3         1 Y5H      -0.0022
     16 C15        -5.6075   15.1043   26.6907 C.3         1 Y5H      -0.0072
     17 C8         -4.2770   15.1889   25.9237 C.3         1 Y5H      -0.0298
     18 C5         -5.6647   14.1862   23.2433 C.3         1 Y5H       0.1231
     19 C2         -4.2198   14.1570   22.7226 C.3         1 Y5H       0.1287
     20 C6         -4.3341   13.2377   21.6060 C.2         1 Y5H       0.2198
     21 O13        -3.4155   13.0054   20.8377 O.2         1 Y5H      -0.3852
     22 C11        -6.3658   13.3408   22.3206 C.2         1 Y5H       0.2184
     23 O18        -7.5783   13.1870   22.3872 O.2         1 Y5H      -0.3853
     24 N12        -5.5728   12.8290   21.3957 N.am        1 Y5H      -0.1843
     25 C19        -6.0236   12.0116   20.2890 C.3         1 Y5H       0.0635
     26 C21        -6.2107   10.5182   20.6918 C.3         1 Y5H       0.0123
     27 C23        -6.9972    9.6914   19.6196 C.3         1 Y5H      -0.0286
     28 N29        -7.2431    8.2090   19.8633 N.4         1 Y5H       0.2369
     29 C32        -8.1758    7.6839   18.7867 C.3         1 Y5H      -0.0418
     30 C31        -7.9172    7.9830   21.1959 C.3         1 Y5H      -0.0418
     31 C30        -5.9690    7.4170   19.8011 C.3         1 Y5H      -0.0418
     32 H1          0.0913    6.5988   25.7396 H           1 Y5H       0.0446
     33 H2         -0.0796    8.4523   24.0691 H           1 Y5H       0.0483
     34 H3         -1.1406   12.8013   22.3352 H           1 Y5H       0.0892
     35 H4         -2.5678   14.6512   24.0476 H           1 Y5H       0.1004
     36 H5         -3.9756   13.1941   25.8241 H           1 Y5H       0.2053
     37 H6         -5.7808   12.5846   24.7372 H           1 Y5H       0.0882
     38 H7         -7.1621   13.6546   26.2527 H           1 Y5H       0.0323
     39 H8         -7.2110   15.0881   25.2279 H           1 Y5H       0.0323
     40 H9         -5.4717   14.5136   27.6010 H           1 Y5H       0.0319
     41 H10        -5.9759   16.0960   26.9610 H           1 Y5H       0.0319
     42 H11        -4.2867   16.0654   25.2622 H           1 Y5H       0.0815
     43 H12        -3.4252   15.2619   26.6065 H           1 Y5H       0.0815
     44 H13        -6.0494   15.2116   23.1946 H           1 Y5H       0.0632
     45 H14        -3.9507   15.1396   22.3160 H           1 Y5H       0.0648
     46 H15        -5.3202   12.0683   19.4569 H           1 Y5H       0.0578
     47 H16        -6.9681   12.4050   19.9147 H           1 Y5H       0.0578
     48 H17        -6.7386   10.4908   21.6406 H           1 Y5H       0.0340
     49 H18        -5.2271   10.0818   20.8349 H           1 Y5H       0.0340
     50 H19        -6.4525    9.8093   18.6833 H           1 Y5H       0.0816
     51 H20        -7.9613   10.1844   19.4798 H           1 Y5H       0.0816
     52 H21        -8.3768    6.6136   18.9069 H           1 Y5H       0.0778
     53 H22        -7.7542    7.8233   17.7874 H           1 Y5H       0.0778
     54 H23        -9.1435    8.1910   18.8086 H           1 Y5H       0.0778
     55 H24        -7.2539    8.2136   22.0335 H           1 Y5H       0.0778
     56 H25        -8.2282    6.9415   21.3166 H           1 Y5H       0.0778
     57 H26        -8.8124    8.6012   21.3003 H           1 Y5H       0.0778
     58 H27        -5.4614    7.5474   18.8425 H           1 Y5H       0.0778
     59 H28        -6.1550    6.3475   19.9228 H           1 Y5H       0.0778
     60 H29        -5.2720    7.7102   20.5850 H           1 Y5H       0.0778
@<TRIPOS>BOND
     1     1     2   1
     2     2     3   2
     3     2     5   1
     4     3     4   1
     5     4     6   2
     6     5     6   1
     7     6     7   1
     8     7     8   2
     9     7     9   1
    10     8    11   1
    11     9    10   1
    12    10    11   2
    13    11    12   1
    14    12    13   1
    15    12    19   1
    16    13    14   1
    17    13    17   1
    18    14    15   1
    19    14    18   1
    20    15    16   1
    21    16    17   1
    22    18    19   1
    23    18    22   1
    24    19    20   1
    25    20    21   2
    26    20    24  am
    27    22    23   2
    28    22    24  am
    29    24    25   1
    30    25    26   1
    31    26    27   1
    32    27    28   1
    33    28    29   1
    34    28    30   1
    35    28    31   1
    36     3    32   1
    37     4    33   1
    38    10    34   1
    39    12    35   1
    40    13    36   1
    41    14    37   1
    42    15    38   1
    43    15    39   1
    44    16    40   1
    45    16    41   1
    46    17    42   1
    47    17    43   1
    48    18    44   1
    49    19    45   1
    50    25    46   1
    51    25    47   1
    52    26    48   1
    53    26    49   1
    54    27    50   1
    55    27    51   1
    56    29    52   1
    57    29    53   1
    58    29    54   1
    59    30    55   1
    60    30    56   1
    61    30    57   1
    62    31    58   1
    63    31    59   1
    64    31    60   1
@<TRIPOS>SUBSTRUCTURE
     1  Y5H      1

