@<TRIPOS>MOLECULE
2y5h_ligand_020
    60    64
SMALL
GAST_HUCK
****
This file was generated by PARSER (from files_GN.cpp)

@<TRIPOS>ATOM
      1 CL1         1.0549   15.0409   12.0517 Cl          1 Y5H      -0.0522
      2 C25         0.4981   14.6709   13.6011 C.2         1 Y5H       0.0990
      3 C24         1.2511   14.1750   14.6684 C.2         1 Y5H      -0.0555
      4 C22         0.5162   13.9639   15.8484 C.2         1 Y5H      -0.0588
      5 S1         -1.1176   14.8596   14.1564 S.3         1 Y5H      -0.0195
      6 C20        -0.8432   14.2967   15.7564 C.2         1 Y5H       0.0881
      7 C17        -1.8010   14.2385   16.7789 C.2         1 Y5H       0.1971
      8 N16        -1.5914   13.7164   18.0010 N.2         1 Y5H      -0.3009
      9 O10        -3.0521   14.7477   16.6984 O.3         1 Y5H      -0.2447
     10 C9         -3.6320   14.5355   17.8959 C.2         1 Y5H       0.0987
     11 C4         -2.7170   13.8809   18.7140 C.2         1 Y5H       0.0610
     12 C1         -2.9150   13.4935   20.1286 C.3         1 Y5H       0.0342
     13 N3         -1.7069   12.8778   20.7478 N.4         1 Y5H       0.2526
     14 C7         -2.1595   12.1583   21.9539 C.3         1 Y5H       0.0038
     15 C14        -1.9328   13.1496   23.1163 C.3         1 Y5H      -0.0022
     16 C15        -0.6468   13.8845   22.7045 C.3         1 Y5H      -0.0072
     17 C8         -0.6112   13.7972   21.1635 C.3         1 Y5H      -0.0298
     18 C5         -3.6335   11.7427   21.6884 C.3         1 Y5H       0.1231
     19 C2         -4.0624   12.4808   20.4048 C.3         1 Y5H       0.1287
     20 C6         -4.2728   11.3815   19.4854 C.2         1 Y5H       0.2198
     21 O13        -4.6506   11.5501   18.3328 O.2         1 Y5H      -0.3852
     22 C11        -3.7917   10.3611   21.3232 C.2         1 Y5H       0.2184
     23 O18        -3.6531    9.4674   22.1457 O.2         1 Y5H      -0.3853
     24 N12        -4.1404   10.2007   20.0584 N.am        1 Y5H      -0.1843
     25 C19        -4.3973    8.9266   19.4273 C.3         1 Y5H       0.0635
     26 C21        -5.9258    8.6141   19.3310 C.3         1 Y5H       0.0123
     27 C23        -6.3494    7.1156   19.5545 C.3         1 Y5H      -0.0286
     28 N29        -6.9430    6.3065   18.4093 N.4         1 Y5H       0.2369
     29 C32        -8.1905    6.9508   17.8518 C.3         1 Y5H      -0.0418
     30 C31        -7.3303    4.9431   18.9408 C.3         1 Y5H      -0.0418
     31 C30        -5.9254    6.1092   17.3132 C.3         1 Y5H      -0.0418
     32 H1          2.2550   13.9903   14.6045 H           1 Y5H       0.0446
     33 H2          0.9489   13.6182   16.7060 H           1 Y5H       0.0483
     34 H3         -4.5765   14.8227   18.1581 H           1 Y5H       0.0892
     35 H4         -3.1584   14.4144   20.6719 H           1 Y5H       0.1004
     36 H5         -1.3296   12.1881   20.0909 H           1 Y5H       0.2053
     37 H6         -1.5186   11.2830   22.1108 H           1 Y5H       0.0882
     38 H7         -1.8174   12.6336   24.0734 H           1 Y5H       0.0323
     39 H8         -2.7590   13.8632   23.1911 H           1 Y5H       0.0323
     40 H9          0.2247   13.3811   23.1347 H           1 Y5H       0.0319
     41 H10        -0.6583   14.9228   23.0469 H           1 Y5H       0.0319
     42 H11        -0.7157   14.7910   20.7211 H           1 Y5H       0.0815
     43 H12         0.3438   13.3819   20.8329 H           1 Y5H       0.0815
     44 H13        -4.2907   11.9870   22.5300 H           1 Y5H       0.0632
     45 H14        -5.0119   13.0092   20.5507 H           1 Y5H       0.0648
     46 H15        -3.8686    8.1435   19.9724 H           1 Y5H       0.0578
     47 H16        -3.9701    8.9123   18.4167 H           1 Y5H       0.0578
     48 H17        -6.2648    8.9863   18.3613 H           1 Y5H       0.0340
     49 H18        -6.4596    9.2191   20.0702 H           1 Y5H       0.0340
     50 H19        -7.0728    7.1284   20.3763 H           1 Y5H       0.0816
     51 H20        -5.4949    6.5627   19.9518 H           1 Y5H       0.0816
     52 H21        -8.6744    6.3099   17.1068 H           1 Y5H       0.0778
     53 H22        -7.9852    7.8940   17.3451 H           1 Y5H       0.0778
     54 H23        -8.9182    7.1518   18.6465 H           1 Y5H       0.0778
     55 H24        -6.4616    4.4050   19.3313 H           1 Y5H       0.0778
     56 H25        -7.7807    4.3138   18.1661 H           1 Y5H       0.0778
     57 H26        -8.0573    5.0240   19.7551 H           1 Y5H       0.0778
     58 H27        -5.6252    7.0622   16.8734 H           1 Y5H       0.0778
     59 H28        -6.3237    5.4831   16.5084 H           1 Y5H       0.0778
     60 H29        -5.0213    5.6193   17.6873 H           1 Y5H       0.0778
@<TRIPOS>BOND
     1     1     2   1
     2     2     3   2
     3     2     5   1
     4     3     4   1
     5     4     6   2
     6     5     6   1
     7     6     7   1
     8     7     8   2
     9     7     9   1
    10     8    11   1
    11     9    10   1
    12    10    11   2
    13    11    12   1
    14    12    13   1
    15    12    19   1
    16    13    14   1
    17    13    17   1
    18    14    15   1
    19    14    18   1
    20    15    16   1
    21    16    17   1
    22    18    19   1
    23    18    22   1
    24    19    20   1
    25    20    21   2
    26    20    24  am
    27    22    23   2
    28    22    24  am
    29    24    25   1
    30    25    26   1
    31    26    27   1
    32    27    28   1
    33    28    29   1
    34    28    30   1
    35    28    31   1
    36     3    32   1
    37     4    33   1
    38    10    34   1
    39    12    35   1
    40    13    36   1
    41    14    37   1
    42    15    38   1
    43    15    39   1
    44    16    40   1
    45    16    41   1
    46    17    42   1
    47    17    43   1
    48    18    44   1
    49    19    45   1
    50    25    46   1
    51    25    47   1
    52    26    48   1
    53    26    49   1
    54    27    50   1
    55    27    51   1
    56    29    52   1
    57    29    53   1
    58    29    54   1
    59    30    55   1
    60    30    56   1
    61    30    57   1
    62    31    58   1
    63    31    59   1
    64    31    60   1
@<TRIPOS>SUBSTRUCTURE
     1  Y5H      1

