@<TRIPOS>MOLECULE
2y5h_ligand_070
    60    64
SMALL
GAST_HUCK
****
This file was generated by PARSER (from files_GN.cpp)

@<TRIPOS>ATOM
      1 CL1        -7.7225   14.9396   26.0282 Cl          1 Y5H      -0.0522
      2 C25        -6.5115   15.7528   25.1790 C.2         1 Y5H       0.0990
      3 C24        -6.0191   17.0341   25.4299 C.2         1 Y5H      -0.0555
      4 C22        -5.0043   17.4475   24.5498 C.2         1 Y5H      -0.0588
      5 S1         -5.6504   15.1159   23.8366 S.3         1 Y5H      -0.0195
      6 C20        -4.6564   16.4995   23.5783 C.2         1 Y5H       0.0881
      7 C17        -3.6665   16.6068   22.5976 C.2         1 Y5H       0.1971
      8 N16        -3.3394   15.6316   21.7339 N.2         1 Y5H      -0.3009
      9 O10        -2.8895   17.6959   22.3808 O.3         1 Y5H      -0.2447
     10 C9         -2.0589   17.3767   21.3691 C.2         1 Y5H       0.0987
     11 C4         -2.3294   16.0754   20.9744 C.2         1 Y5H       0.0610
     12 C1         -1.6470   15.2984   19.9123 C.3         1 Y5H       0.0342
     13 N3         -2.6193   15.0302   18.8177 N.4         1 Y5H       0.2526
     14 C7         -3.1082   13.6434   18.9477 C.3         1 Y5H       0.0038
     15 C14        -3.5131   13.1793   17.5220 C.3         1 Y5H      -0.0022
     16 C15        -3.1414   14.3575   16.6005 C.3         1 Y5H      -0.0072
     17 C8         -2.1316   15.1714   17.4248 C.3         1 Y5H      -0.0298
     18 C5         -1.9451   12.8625   19.6199 C.3         1 Y5H       0.1231
     19 C2         -1.0796   13.9088   20.3378 C.3         1 Y5H       0.1287
     20 C6         -1.1616   13.4683   21.7112 C.2         1 Y5H       0.2198
     21 O13        -0.5818   14.0578   22.6108 O.2         1 Y5H      -0.3852
     22 C11        -2.3438   11.9860   20.6858 C.2         1 Y5H       0.2184
     23 O18        -3.0277   10.9914   20.4791 O.2         1 Y5H      -0.3853
     24 N12        -1.8798   12.3682   21.8647 N.am        1 Y5H      -0.1843
     25 C19        -2.0709   11.6498   23.1122 C.3         1 Y5H       0.0635
     26 C21        -0.7544   10.9490   23.5945 C.3         1 Y5H       0.0123
     27 C23        -0.9274    9.5241   24.2426 C.3         1 Y5H      -0.0286
     28 N29        -0.4700    9.2837   25.6783 N.4         1 Y5H       0.2369
     29 C32        -1.4483    9.9084   26.6449 C.3         1 Y5H      -0.0418
     30 C31         0.9261    9.8111   25.9340 C.3         1 Y5H      -0.0418
     31 C30        -0.4423    7.7883   25.9500 C.3         1 Y5H      -0.0418
     32 H1         -6.3597   17.6222   26.1915 H           1 Y5H       0.0446
     33 H2         -4.5519   18.3613   24.6213 H           1 Y5H       0.0483
     34 H3         -1.3518   17.9977   20.9738 H           1 Y5H       0.0892
     35 H4         -0.8193   15.9121   19.5392 H           1 Y5H       0.1004
     36 H5         -3.4179   15.6633   18.9158 H           1 Y5H       0.2053
     37 H6         -3.9936   13.6618   19.5913 H           1 Y5H       0.0882
     38 H7         -4.5875   12.9702   17.4612 H           1 Y5H       0.0323
     39 H8         -2.9742   12.2790   17.2138 H           1 Y5H       0.0323
     40 H9         -4.0306   14.9645   16.3931 H           1 Y5H       0.0319
     41 H10        -2.7081   14.0160   15.6541 H           1 Y5H       0.0319
     42 H11        -1.1262   14.7510   17.3033 H           1 Y5H       0.0815
     43 H12        -2.1253   16.2218   17.1184 H           1 Y5H       0.0815
     44 H13        -1.3457   12.3198   18.8864 H           1 Y5H       0.0632
     45 H14        -0.0392   13.8149   20.0090 H           1 Y5H       0.0648
     46 H15        -2.8693   10.9047   23.0000 H           1 Y5H       0.0578
     47 H16        -2.4073   12.3458   23.8942 H           1 Y5H       0.0578
     48 H17        -0.2285   11.6272   24.2826 H           1 Y5H       0.0340
     49 H18        -0.0952   10.8138   22.7241 H           1 Y5H       0.0340
     50 H19        -0.3899    8.8107   23.6004 H           1 Y5H       0.0816
     51 H20        -1.9852    9.2228   24.1834 H           1 Y5H       0.0816
     52 H21        -1.1536    9.7353   27.6857 H           1 Y5H       0.0778
     53 H22        -2.4561    9.4966   26.5137 H           1 Y5H       0.0778
     54 H23        -1.5186   10.9891   26.4977 H           1 Y5H       0.0778
     55 H24         1.6262    9.4211   25.1835 H           1 Y5H       0.0778
     56 H25         1.2988    9.5161   26.9297 H           1 Y5H       0.0778
     57 H26         0.9530   10.9033   25.9000 H           1 Y5H       0.0778
     58 H27        -1.4273    7.3320   25.8077 H           1 Y5H       0.0778
     59 H28        -0.1308    7.5631   26.9802 H           1 Y5H       0.0778
     60 H29         0.2581    7.2758   25.2799 H           1 Y5H       0.0778
@<TRIPOS>BOND
     1     1     2   1
     2     2     3   2
     3     2     5   1
     4     3     4   1
     5     4     6   2
     6     5     6   1
     7     6     7   1
     8     7     8   2
     9     7     9   1
    10     8    11   1
    11     9    10   1
    12    10    11   2
    13    11    12   1
    14    12    13   1
    15    12    19   1
    16    13    14   1
    17    13    17   1
    18    14    15   1
    19    14    18   1
    20    15    16   1
    21    16    17   1
    22    18    19   1
    23    18    22   1
    24    19    20   1
    25    20    21   2
    26    20    24  am
    27    22    23   2
    28    22    24  am
    29    24    25   1
    30    25    26   1
    31    26    27   1
    32    27    28   1
    33    28    29   1
    34    28    30   1
    35    28    31   1
    36     3    32   1
    37     4    33   1
    38    10    34   1
    39    12    35   1
    40    13    36   1
    41    14    37   1
    42    15    38   1
    43    15    39   1
    44    16    40   1
    45    16    41   1
    46    17    42   1
    47    17    43   1
    48    18    44   1
    49    19    45   1
    50    25    46   1
    51    25    47   1
    52    26    48   1
    53    26    49   1
    54    27    50   1
    55    27    51   1
    56    29    52   1
    57    29    53   1
    58    29    54   1
    59    30    55   1
    60    30    56   1
    61    30    57   1
    62    31    58   1
    63    31    59   1
    64    31    60   1
@<TRIPOS>SUBSTRUCTURE
     1  Y5H      1

