@<TRIPOS>MOLECULE
2y5h_ligand_015
    60    64
SMALL
GAST_HUCK
****
This file was generated by PARSER (from files_GN.cpp)

@<TRIPOS>ATOM
      1 CL1        -9.5489   18.7623   25.3624 Cl          1 Y5H      -0.0522
      2 C25        -8.8948   17.2240   25.1232 C.2         1 Y5H       0.0990
      3 C24        -9.4588   16.0081   25.5119 C.2         1 Y5H      -0.0555
      4 C22        -8.6807   14.8799   25.1920 C.2         1 Y5H      -0.0588
      5 S1         -7.3998   16.8776   24.3527 S.3         1 Y5H      -0.0195
      6 C20        -7.4829   15.1691   24.5296 C.2         1 Y5H       0.0881
      7 C17        -6.5233   14.2472   24.0976 C.2         1 Y5H       0.1971
      8 N16        -5.4322   14.5665   23.3829 N.2         1 Y5H      -0.3009
      9 O10        -6.5502   12.9154   24.3523 O.3         1 Y5H      -0.2447
     10 C9         -5.4428   12.4015   23.7819 C.2         1 Y5H       0.0987
     11 C4         -4.7460   13.4372   23.1631 C.2         1 Y5H       0.0610
     12 C1         -3.4538   13.3635   22.4397 C.3         1 Y5H       0.0342
     13 N3         -3.3795   12.1655   21.5602 N.4         1 Y5H       0.2526
     14 C7         -1.9551   11.8682   21.3361 C.3         1 Y5H       0.0038
     15 C14        -1.5979   12.6032   20.0273 C.3         1 Y5H      -0.0022
     16 C15        -2.8914   12.5111   19.1976 C.3         1 Y5H      -0.0072
     17 C8         -4.0210   12.2755   20.2246 C.3         1 Y5H      -0.0298
     18 C5         -1.2169   12.3507   22.6106 C.3         1 Y5H       0.1231
     19 C2         -2.1802   13.3120   23.3325 C.3         1 Y5H       0.1287
     20 C6         -2.3071   12.7078   24.6328 C.2         1 Y5H       0.2198
     21 O13        -2.9172   13.2623   25.5362 O.2         1 Y5H      -0.3852
     22 C11        -1.0146   11.3276   23.6028 C.2         1 Y5H       0.2184
     23 O18        -0.2453   10.3965   23.4102 O.2         1 Y5H      -0.3853
     24 N12        -1.6444   11.5722   24.7390 N.am        1 Y5H      -0.1843
     25 C19        -1.5466   10.7590   25.9272 C.3         1 Y5H       0.0635
     26 C21        -2.1970    9.3559   25.7626 C.3         1 Y5H       0.0123
     27 C23        -2.1445    8.4156   27.0093 C.3         1 Y5H      -0.0286
     28 N29        -0.8740    7.6531   27.3846 N.4         1 Y5H       0.2369
     29 C32        -0.5028    6.6478   26.3169 C.3         1 Y5H      -0.0418
     30 C31        -1.1400    6.9024   28.6749 C.3         1 Y5H      -0.0418
     31 C30         0.2958    8.5745   27.6153 C.3         1 Y5H      -0.0418
     32 H1        -10.3587   15.9426   25.9886 H           1 Y5H       0.0446
     33 H2         -8.9695   13.9273   25.4205 H           1 Y5H       0.0483
     34 H3         -5.1640   11.4196   23.8194 H           1 Y5H       0.0892
     35 H4         -3.3671   14.2708   21.8281 H           1 Y5H       0.1004
     36 H5         -3.7867   11.3690   22.0557 H           1 Y5H       0.2053
     37 H6         -1.8240   10.7909   21.1773 H           1 Y5H       0.0882
     38 H7         -0.7520   12.1348   19.5180 H           1 Y5H       0.0323
     39 H8         -1.3597   13.6534   20.2225 H           1 Y5H       0.0323
     40 H9         -2.8368   11.6679   18.5047 H           1 Y5H       0.0319
     41 H10        -3.0558   13.4273   18.6235 H           1 Y5H       0.0319
     42 H11        -4.7624   13.0782   20.1854 H           1 Y5H       0.0815
     43 H12        -4.5353   11.3342   20.0069 H           1 Y5H       0.0815
     44 H13        -0.2590   12.8234   22.3760 H           1 Y5H       0.0632
     45 H14        -1.7312   14.3091   23.4351 H           1 Y5H       0.0648
     46 H15        -2.0287   11.2553   26.7747 H           1 Y5H       0.0578
     47 H16        -0.4938   10.6726   26.1754 H           1 Y5H       0.0578
     48 H17        -1.7775    8.8451   24.8979 H           1 Y5H       0.0340
     49 H18        -3.2493    9.5442   25.5388 H           1 Y5H       0.0340
     50 H19        -2.9338    7.6773   26.8449 H           1 Y5H       0.0816
     51 H20        -2.4730    9.0186   27.8638 H           1 Y5H       0.0816
     52 H21         0.3832    6.0756   26.6027 H           1 Y5H       0.0778
     53 H22        -0.2770    7.1340   25.3671 H           1 Y5H       0.0778
     54 H23        -1.3087    5.9354   26.1427 H           1 Y5H       0.0778
     55 H24        -1.3761    7.5902   29.4911 H           1 Y5H       0.0778
     56 H25        -0.2735    6.3138   28.9867 H           1 Y5H       0.0778
     57 H26        -1.9772    6.2098   28.5726 H           1 Y5H       0.0778
     58 H27         0.7279    8.9309   26.6801 H           1 Y5H       0.0778
     59 H28         1.0980    8.0716   28.1582 H           1 Y5H       0.0778
     60 H29         0.0106    9.4449   28.2036 H           1 Y5H       0.0778
@<TRIPOS>BOND
     1     1     2   1
     2     2     3   2
     3     2     5   1
     4     3     4   1
     5     4     6   2
     6     5     6   1
     7     6     7   1
     8     7     8   2
     9     7     9   1
    10     8    11   1
    11     9    10   1
    12    10    11   2
    13    11    12   1
    14    12    13   1
    15    12    19   1
    16    13    14   1
    17    13    17   1
    18    14    15   1
    19    14    18   1
    20    15    16   1
    21    16    17   1
    22    18    19   1
    23    18    22   1
    24    19    20   1
    25    20    21   2
    26    20    24  am
    27    22    23   2
    28    22    24  am
    29    24    25   1
    30    25    26   1
    31    26    27   1
    32    27    28   1
    33    28    29   1
    34    28    30   1
    35    28    31   1
    36     3    32   1
    37     4    33   1
    38    10    34   1
    39    12    35   1
    40    13    36   1
    41    14    37   1
    42    15    38   1
    43    15    39   1
    44    16    40   1
    45    16    41   1
    46    17    42   1
    47    17    43   1
    48    18    44   1
    49    19    45   1
    50    25    46   1
    51    25    47   1
    52    26    48   1
    53    26    49   1
    54    27    50   1
    55    27    51   1
    56    29    52   1
    57    29    53   1
    58    29    54   1
    59    30    55   1
    60    30    56   1
    61    30    57   1
    62    31    58   1
    63    31    59   1
    64    31    60   1
@<TRIPOS>SUBSTRUCTURE
     1  Y5H      1

