@<TRIPOS>MOLECULE
2y5h_ligand_052
    60    64
SMALL
GAST_HUCK
****
This file was generated by PARSER (from files_GN.cpp)

@<TRIPOS>ATOM
      1 CL1         0.0654   14.1103   16.4231 Cl          1 Y5H      -0.0522
      2 C25        -0.7255   15.0059   17.6206 C.2         1 Y5H       0.0990
      3 C24        -0.7752   16.4058   17.7135 C.2         1 Y5H      -0.0555
      4 C22        -1.4824   16.8771   18.8357 C.2         1 Y5H      -0.0588
      5 S1         -1.5968   14.3677   18.9510 S.3         1 Y5H      -0.0195
      6 C20        -2.0439   15.8857   19.6462 C.2         1 Y5H       0.0881
      7 C17        -2.7689   16.0629   20.8259 C.2         1 Y5H       0.1971
      8 N16        -3.3759   15.0878   21.5239 N.2         1 Y5H      -0.3009
      9 O10        -2.9465   17.2603   21.4483 O.3         1 Y5H      -0.2447
     10 C9         -3.6567   17.0046   22.5562 C.2         1 Y5H       0.0987
     11 C4         -3.9211   15.6382   22.6248 C.2         1 Y5H       0.0610
     12 C1         -4.6457   14.8782   23.6706 C.3         1 Y5H       0.0342
     13 N3         -4.3935   15.3942   25.0501 N.4         1 Y5H       0.2526
     14 C7         -4.5696   14.2830   25.9973 C.3         1 Y5H       0.0038
     15 C14        -5.9927   14.4516   26.5877 C.3         1 Y5H      -0.0022
     16 C15        -6.1886   15.9664   26.6171 C.3         1 Y5H      -0.0072
     17 C8         -5.2453   16.5158   25.5330 C.3         1 Y5H      -0.0298
     18 C5         -4.3602   12.9660   25.2023 C.3         1 Y5H       0.1231
     19 C2         -4.3692   13.3434   23.7074 C.3         1 Y5H       0.1287
     20 C6         -3.1092   12.8056   23.2630 C.2         1 Y5H       0.2198
     21 O13        -2.7824   12.8147   22.0780 O.2         1 Y5H      -0.3852
     22 C11        -3.0729   12.3485   25.3602 C.2         1 Y5H       0.2184
     23 O18        -2.6525   12.0283   26.4700 O.2         1 Y5H      -0.3853
     24 N12        -2.4416   12.1646   24.2082 N.am        1 Y5H      -0.1843
     25 C19        -1.2296   11.4140   23.9226 C.3         1 Y5H       0.0635
     26 C21        -0.5707   10.5233   25.0146 C.3         1 Y5H       0.0123
     27 C23        -1.4132    9.2849   25.4469 C.3         1 Y5H      -0.0286
     28 N29        -0.8469    8.3632   26.5270 N.4         1 Y5H       0.2369
     29 C32         0.1816    9.0565   27.3829 C.3         1 Y5H      -0.0418
     30 C31        -0.2290    7.1349   25.9035 C.3         1 Y5H      -0.0418
     31 C30        -1.9641    7.9076   27.4554 C.3         1 Y5H      -0.0418
     32 H1         -0.3177   17.0208   17.0435 H           1 Y5H       0.0446
     33 H2         -1.5812   17.8787   19.0282 H           1 Y5H       0.0483
     34 H3         -3.9589   17.7149   23.2313 H           1 Y5H       0.0892
     35 H4         -5.7140   14.9848   23.4524 H           1 Y5H       0.1004
     36 H5         -3.4212   15.6921   25.1286 H           1 Y5H       0.2053
     37 H6         -3.8329   14.3777   26.8120 H           1 Y5H       0.0882
     38 H7         -6.0635   13.9924   27.5787 H           1 Y5H       0.0323
     39 H8         -6.7346   13.9879   25.9281 H           1 Y5H       0.0323
     40 H9         -5.9111   16.3638   27.5938 H           1 Y5H       0.0319
     41 H10        -7.2263   16.2160   26.4160 H           1 Y5H       0.0319
     42 H11        -5.8147   16.9717   24.7256 H           1 Y5H       0.0815
     43 H12        -4.6007   17.2863   25.9580 H           1 Y5H       0.0815
     44 H13        -5.1333   12.2129   25.4341 H           1 Y5H       0.0632
     45 H14        -5.1718   12.7982   23.1902 H           1 Y5H       0.0648
     46 H15        -0.4738   12.1304   23.5826 H           1 Y5H       0.0578
     47 H16        -1.4288   10.7359   23.0763 H           1 Y5H       0.0578
     48 H17        -0.3684   11.1610   25.8783 H           1 Y5H       0.0340
     49 H18         0.3894   10.1650   24.6317 H           1 Y5H       0.0340
     50 H19        -1.6255    8.6887   24.5476 H           1 Y5H       0.0816
     51 H20        -2.3989    9.6389   25.7696 H           1 Y5H       0.0816
     52 H21         0.4925    8.4479   28.2377 H           1 Y5H       0.0778
     53 H22        -0.2206    9.9938   27.7736 H           1 Y5H       0.0778
     54 H23         1.0874    9.2898   26.8167 H           1 Y5H       0.0778
     55 H24        -0.9793    6.5521   25.3673 H           1 Y5H       0.0778
     56 H25         0.2134    6.4713   26.6557 H           1 Y5H       0.0778
     57 H26         0.5569    7.4003   25.1889 H           1 Y5H       0.0778
     58 H27        -2.3699    8.7483   28.0316 H           1 Y5H       0.0778
     59 H28        -1.6224    7.1554   28.1789 H           1 Y5H       0.0778
     60 H29        -2.7920    7.4670   26.8925 H           1 Y5H       0.0778
@<TRIPOS>BOND
     1     1     2   1
     2     2     3   2
     3     2     5   1
     4     3     4   1
     5     4     6   2
     6     5     6   1
     7     6     7   1
     8     7     8   2
     9     7     9   1
    10     8    11   1
    11     9    10   1
    12    10    11   2
    13    11    12   1
    14    12    13   1
    15    12    19   1
    16    13    14   1
    17    13    17   1
    18    14    15   1
    19    14    18   1
    20    15    16   1
    21    16    17   1
    22    18    19   1
    23    18    22   1
    24    19    20   1
    25    20    21   2
    26    20    24  am
    27    22    23   2
    28    22    24  am
    29    24    25   1
    30    25    26   1
    31    26    27   1
    32    27    28   1
    33    28    29   1
    34    28    30   1
    35    28    31   1
    36     3    32   1
    37     4    33   1
    38    10    34   1
    39    12    35   1
    40    13    36   1
    41    14    37   1
    42    15    38   1
    43    15    39   1
    44    16    40   1
    45    16    41   1
    46    17    42   1
    47    17    43   1
    48    18    44   1
    49    19    45   1
    50    25    46   1
    51    25    47   1
    52    26    48   1
    53    26    49   1
    54    27    50   1
    55    27    51   1
    56    29    52   1
    57    29    53   1
    58    29    54   1
    59    30    55   1
    60    30    56   1
    61    30    57   1
    62    31    58   1
    63    31    59   1
    64    31    60   1
@<TRIPOS>SUBSTRUCTURE
     1  Y5H      1

