@<TRIPOS>MOLECULE
2y5h_ligand_040
    60    64
SMALL
GAST_HUCK
****
This file was generated by PARSER (from files_GN.cpp)

@<TRIPOS>ATOM
      1 CL1       -11.7914   12.6989   21.1749 Cl          1 Y5H      -0.0522
      2 C25       -10.1558   12.4421   20.8459 C.2         1 Y5H       0.0990
      3 C24        -9.5882   11.3085   20.2605 C.2         1 Y5H      -0.0555
      4 C22        -8.1924   11.3742   20.1070 C.2         1 Y5H      -0.0588
      5 S1         -8.8821   13.5491   21.1712 S.3         1 Y5H      -0.0195
      6 C20        -7.6090   12.5652   20.5593 C.2         1 Y5H       0.0881
      7 C17        -6.2496   12.9005   20.5306 C.2         1 Y5H       0.1971
      8 N16        -5.7342   14.0846   20.9050 N.2         1 Y5H      -0.3009
      9 O10        -5.2626   12.0640   20.1346 O.3         1 Y5H      -0.2447
     10 C9         -4.1078   12.7448   20.2686 C.2         1 Y5H       0.0987
     11 C4         -4.4028   14.0176   20.7474 C.2         1 Y5H       0.0610
     12 C1         -3.4636   15.1179   21.0931 C.3         1 Y5H       0.0342
     13 N3         -2.3898   15.2500   20.0683 N.4         1 Y5H       0.2526
     14 C7         -1.1521   14.6419   20.5948 C.3         1 Y5H       0.0038
     15 C14         0.0238   15.3595   19.8842 C.3         1 Y5H      -0.0022
     16 C15        -0.6366   16.4450   19.0155 C.3         1 Y5H      -0.0072
     17 C8         -2.0275   16.6203   19.6384 C.3         1 Y5H      -0.0298
     18 C5         -1.2416   14.8092   22.1375 C.3         1 Y5H       0.1231
     19 C2         -2.7337   14.9790   22.4629 C.3         1 Y5H       0.1287
     20 C6         -2.9987   13.8272   23.2930 C.2         1 Y5H       0.2198
     21 O13        -4.1002   13.6450   23.7992 O.2         1 Y5H      -0.3852
     22 C11        -0.8858   13.6429   22.8956 C.2         1 Y5H       0.2184
     23 O18         0.2821   13.2778   22.9515 O.2         1 Y5H      -0.3853
     24 N12        -1.9257   13.0797   23.4974 N.am        1 Y5H      -0.1843
     25 C19        -1.8925   11.9118   24.3620 C.3         1 Y5H       0.0635
     26 C21        -1.0832   10.7082   23.7946 C.3         1 Y5H       0.0123
     27 C23        -1.1687    9.3321   24.5321 C.3         1 Y5H      -0.0286
     28 N29        -0.5344    9.1165   25.9082 N.4         1 Y5H       0.2369
     29 C32        -1.4075    9.6582   27.0179 C.3         1 Y5H      -0.0418
     30 C31         0.8421    9.7372   26.0039 C.3         1 Y5H      -0.0418
     31 C30        -0.3900    7.6249   26.1391 C.3         1 Y5H      -0.0418
     32 H1        -10.1399   10.4995   19.9657 H           1 Y5H       0.0446
     33 H2         -7.6527   10.6102   19.6917 H           1 Y5H       0.0483
     34 H3         -3.1849   12.3723   20.0473 H           1 Y5H       0.0892
     35 H4         -4.0619   16.0349   21.1230 H           1 Y5H       0.1004
     36 H5         -2.6614   14.7389   19.2254 H           1 Y5H       0.2053
     37 H6         -1.1387   13.5814   20.3223 H           1 Y5H       0.0882
     38 H7          0.5809   14.6608   19.2549 H           1 Y5H       0.0323
     39 H8          0.7183   15.8087   20.5984 H           1 Y5H       0.0323
     40 H9         -0.7348   16.0944   17.9833 H           1 Y5H       0.0319
     41 H10        -0.0686   17.3790   19.0240 H           1 Y5H       0.0319
     42 H11        -1.9712   17.3126   20.4854 H           1 Y5H       0.0815
     43 H12        -2.7439   17.0005   18.9078 H           1 Y5H       0.0815
     44 H13        -0.6721   15.6720   22.4973 H           1 Y5H       0.0632
     45 H14        -2.8744   15.8866   23.0612 H           1 Y5H       0.0648
     46 H15        -2.9064   11.5487   24.5665 H           1 Y5H       0.0578
     47 H16        -1.4663   12.2369   25.3096 H           1 Y5H       0.0578
     48 H17        -0.0265   10.9720   23.7291 H           1 Y5H       0.0340
     49 H18        -1.4318   10.5544   22.7653 H           1 Y5H       0.0340
     50 H19        -0.6914    8.6395   23.8283 H           1 Y5H       0.0816
     51 H20        -2.2238    9.0422   24.5577 H           1 Y5H       0.0816
     52 H21        -0.9862    9.4253   28.0045 H           1 Y5H       0.0778
     53 H22        -2.4120    9.2223   26.9765 H           1 Y5H       0.0778
     54 H23        -1.5136   10.7423   26.9689 H           1 Y5H       0.0778
     55 H24         1.4996    9.3601   25.2136 H           1 Y5H       0.0778
     56 H25         1.3220    9.5183   26.9657 H           1 Y5H       0.0778
     57 H26         0.8008   10.8263   25.9133 H           1 Y5H       0.0778
     58 H27        -1.3572    7.1165   26.0678 H           1 Y5H       0.0778
     59 H28         0.0252    7.4054   27.1293 H           1 Y5H       0.0778
     60 H29         0.2768    7.1650   25.3992 H           1 Y5H       0.0778
@<TRIPOS>BOND
     1     1     2   1
     2     2     3   2
     3     2     5   1
     4     3     4   1
     5     4     6   2
     6     5     6   1
     7     6     7   1
     8     7     8   2
     9     7     9   1
    10     8    11   1
    11     9    10   1
    12    10    11   2
    13    11    12   1
    14    12    13   1
    15    12    19   1
    16    13    14   1
    17    13    17   1
    18    14    15   1
    19    14    18   1
    20    15    16   1
    21    16    17   1
    22    18    19   1
    23    18    22   1
    24    19    20   1
    25    20    21   2
    26    20    24  am
    27    22    23   2
    28    22    24  am
    29    24    25   1
    30    25    26   1
    31    26    27   1
    32    27    28   1
    33    28    29   1
    34    28    30   1
    35    28    31   1
    36     3    32   1
    37     4    33   1
    38    10    34   1
    39    12    35   1
    40    13    36   1
    41    14    37   1
    42    15    38   1
    43    15    39   1
    44    16    40   1
    45    16    41   1
    46    17    42   1
    47    17    43   1
    48    18    44   1
    49    19    45   1
    50    25    46   1
    51    25    47   1
    52    26    48   1
    53    26    49   1
    54    27    50   1
    55    27    51   1
    56    29    52   1
    57    29    53   1
    58    29    54   1
    59    30    55   1
    60    30    56   1
    61    30    57   1
    62    31    58   1
    63    31    59   1
    64    31    60   1
@<TRIPOS>SUBSTRUCTURE
     1  Y5H      1

