@<TRIPOS>MOLECULE
2y5h_ligand_079
    60    64
SMALL
GAST_HUCK
****
This file was generated by PARSER (from files_GN.cpp)

@<TRIPOS>ATOM
      1 CL1        -4.6044   15.6355   14.2158 Cl          1 Y5H      -0.0522
      2 C25        -4.9506   15.5843   15.8667 C.2         1 Y5H       0.0990
      3 C24        -5.8162   16.4225   16.5696 C.2         1 Y5H      -0.0555
      4 C22        -5.9112   16.1362   17.9432 C.2         1 Y5H      -0.0588
      5 S1         -4.2920   14.4617   16.9901 S.3         1 Y5H      -0.0195
      6 C20        -5.1265   15.0600   18.3735 C.2         1 Y5H       0.0881
      7 C17        -5.0192   14.5599   19.6767 C.2         1 Y5H       0.1971
      8 N16        -4.1942   13.5626   20.0502 N.2         1 Y5H      -0.3009
      9 O10        -5.7056   15.0232   20.7487 O.3         1 Y5H      -0.2447
     10 C9         -5.2985   14.2906   21.8055 C.2         1 Y5H       0.0987
     11 C4         -4.3450   13.3714   21.3717 C.2         1 Y5H       0.0610
     12 C1         -3.5869   12.4093   22.2164 C.3         1 Y5H       0.0342
     13 N3         -2.2405   12.1704   21.6381 N.4         1 Y5H       0.2526
     14 C7         -2.3131   10.9699   20.7805 C.3         1 Y5H       0.0038
     15 C14        -0.8863   10.3759   20.7374 C.3         1 Y5H      -0.0022
     16 C15        -0.0669   11.2204   21.7331 C.3         1 Y5H      -0.0072
     17 C8         -1.1204   11.9478   22.5807 C.3         1 Y5H      -0.0298
     18 C5         -3.4014   10.0697   21.4236 C.3         1 Y5H       0.1231
     19 C2         -4.2113   10.9879   22.3631 C.3         1 Y5H       0.1287
     20 C6         -5.5635   10.7552   21.9143 C.2         1 Y5H       0.2198
     21 O13        -6.5194   11.2850   22.4714 O.2         1 Y5H      -0.3852
     22 C11        -4.4068    9.5683   20.5246 C.2         1 Y5H       0.2184
     23 O18        -4.1277    8.8776   19.5486 O.2         1 Y5H      -0.3853
     24 N12        -5.6280    9.9471   20.8587 N.am        1 Y5H      -0.1843
     25 C19        -6.8359    9.6162   20.1254 C.3         1 Y5H       0.0635
     26 C21        -7.1523    8.0948   19.9728 C.3         1 Y5H       0.0123
     27 C23        -6.3285    7.3440   18.8775 C.3         1 Y5H      -0.0286
     28 N29        -6.9934    6.2216   18.0887 N.4         1 Y5H       0.2369
     29 C32        -7.3194    5.0593   18.9822 C.3         1 Y5H      -0.0418
     30 C31        -6.0294    5.7476   17.0135 C.3         1 Y5H      -0.0418
     31 C30        -8.2460    6.7054   17.3962 C.3         1 Y5H      -0.0418
     32 H1         -6.3370   17.1800   16.1295 H           1 Y5H       0.0446
     33 H2         -6.5039   16.6778   18.5762 H           1 Y5H       0.0483
     34 H3         -5.6293   14.4067   22.7690 H           1 Y5H       0.0892
     35 H4         -3.4917   12.8644   23.2079 H           1 Y5H       0.1004
     36 H5         -1.9786   12.9718   21.0605 H           1 Y5H       0.2053
     37 H6         -2.6069   11.2885   19.7762 H           1 Y5H       0.0882
     38 H7         -0.4607   10.4572   19.7355 H           1 Y5H       0.0323
     39 H8         -0.8595    9.3195   21.0308 H           1 Y5H       0.0323
     40 H9          0.5461   11.9491   21.1858 H           1 Y5H       0.0319
     41 H10         0.5901   10.5952   22.3458 H           1 Y5H       0.0319
     42 H11        -1.4157   11.3135   23.4224 H           1 Y5H       0.0815
     43 H12        -0.7386   12.8961   22.9669 H           1 Y5H       0.0815
     44 H13        -2.9752    9.2366   21.9928 H           1 Y5H       0.0632
     45 H14        -4.1170   10.6399   23.4026 H           1 Y5H       0.0648
     46 H15        -6.7788   10.0905   19.1415 H           1 Y5H       0.0578
     47 H16        -7.7036   10.0752   20.6154 H           1 Y5H       0.0578
     48 H17        -8.2139    8.0197   19.7334 H           1 Y5H       0.0340
     49 H18        -7.0070    7.6027   20.9397 H           1 Y5H       0.0340
     50 H19        -5.4433    6.9363   19.3800 H           1 Y5H       0.0816
     51 H20        -5.9461    8.0822   18.1694 H           1 Y5H       0.0816
     52 H21        -7.7401    4.2228   18.4205 H           1 Y5H       0.0778
     53 H22        -8.0484    5.3365   19.7468 H           1 Y5H       0.0778
     54 H23        -6.4272    4.6953   19.4933 H           1 Y5H       0.0778
     55 H24        -5.7556    6.5615   16.3304 H           1 Y5H       0.0778
     56 H25        -6.4595    4.9438   16.4031 H           1 Y5H       0.0778
     57 H26        -5.0992    5.3575   17.4473 H           1 Y5H       0.0778
     58 H27        -9.0300    6.9877   18.1057 H           1 Y5H       0.0778
     59 H28        -8.6809    5.9318   16.7497 H           1 Y5H       0.0778
     60 H29        -8.0424    7.5829   16.7671 H           1 Y5H       0.0778
@<TRIPOS>BOND
     1     1     2   1
     2     2     3   2
     3     2     5   1
     4     3     4   1
     5     4     6   2
     6     5     6   1
     7     6     7   1
     8     7     8   2
     9     7     9   1
    10     8    11   1
    11     9    10   1
    12    10    11   2
    13    11    12   1
    14    12    13   1
    15    12    19   1
    16    13    14   1
    17    13    17   1
    18    14    15   1
    19    14    18   1
    20    15    16   1
    21    16    17   1
    22    18    19   1
    23    18    22   1
    24    19    20   1
    25    20    21   2
    26    20    24  am
    27    22    23   2
    28    22    24  am
    29    24    25   1
    30    25    26   1
    31    26    27   1
    32    27    28   1
    33    28    29   1
    34    28    30   1
    35    28    31   1
    36     3    32   1
    37     4    33   1
    38    10    34   1
    39    12    35   1
    40    13    36   1
    41    14    37   1
    42    15    38   1
    43    15    39   1
    44    16    40   1
    45    16    41   1
    46    17    42   1
    47    17    43   1
    48    18    44   1
    49    19    45   1
    50    25    46   1
    51    25    47   1
    52    26    48   1
    53    26    49   1
    54    27    50   1
    55    27    51   1
    56    29    52   1
    57    29    53   1
    58    29    54   1
    59    30    55   1
    60    30    56   1
    61    30    57   1
    62    31    58   1
    63    31    59   1
    64    31    60   1
@<TRIPOS>SUBSTRUCTURE
     1  Y5H      1

