@<TRIPOS>MOLECULE
2y5h_ligand_087
    60    64
SMALL
GAST_HUCK
****
This file was generated by PARSER (from files_GN.cpp)

@<TRIPOS>ATOM
      1 CL1        -2.8634   21.8035   20.4664 Cl          1 Y5H      -0.0522
      2 C25        -3.0170   20.1856   20.9274 C.2         1 Y5H       0.0990
      3 C24        -3.3833   19.7083   22.1866 C.2         1 Y5H      -0.0555
      4 C22        -3.4229   18.3066   22.2861 C.2         1 Y5H      -0.0588
      5 S1         -2.7303   18.8220   19.9224 S.3         1 Y5H      -0.0195
      6 C20        -3.0841   17.6250   21.1079 C.2         1 Y5H       0.0881
      7 C17        -3.0171   16.2383   20.9116 C.2         1 Y5H       0.1971
      8 N16        -3.2986   15.2992   21.8343 N.2         1 Y5H      -0.3009
      9 O10        -2.6284   15.6493   19.7558 O.3         1 Y5H      -0.2447
     10 C9         -2.6713   14.3214   19.9663 C.2         1 Y5H       0.0987
     11 C4         -3.1014   14.0977   21.2696 C.2         1 Y5H       0.0610
     12 C1         -3.2455   12.7890   21.9566 C.3         1 Y5H       0.0342
     13 N3         -1.9946   11.9849   21.8450 N.4         1 Y5H       0.2526
     14 C7         -2.3650   10.5746   22.0635 C.3         1 Y5H       0.0038
     15 C14        -2.0996   10.3372   23.5661 C.3         1 Y5H      -0.0022
     16 C15        -0.8210   11.1525   23.8149 C.3         1 Y5H      -0.0072
     17 C8         -0.8894   12.3056   22.7904 C.3         1 Y5H      -0.0298
     18 C5         -3.8374   10.4206   21.6072 C.3         1 Y5H       0.1231
     19 C2         -4.3981   11.8494   21.4874 C.3         1 Y5H       0.1287
     20 C6         -4.8239   11.8891   20.1071 C.2         1 Y5H       0.2198
     21 O13        -5.4265   12.8567   19.6595 O.2         1 Y5H      -0.3852
     22 C11        -3.9994    9.9091   20.2691 C.2         1 Y5H       0.2184
     23 O18        -3.6471    8.7763   19.9713 O.2         1 Y5H      -0.3853
     24 N12        -4.5916   10.7630   19.4528 N.am        1 Y5H      -0.1843
     25 C19        -4.9479   10.5068   18.0663 C.3         1 Y5H       0.0635
     26 C21        -6.0465    9.4076   17.8953 C.3         1 Y5H       0.0123
     27 C23        -5.5119    8.0098   17.4386 C.3         1 Y5H      -0.0286
     28 N29        -6.3009    6.7671   17.8329 N.4         1 Y5H       0.2369
     29 C32        -6.2079    6.5071   19.3199 C.3         1 Y5H      -0.0418
     30 C31        -5.7014    5.5783   17.1167 C.3         1 Y5H      -0.0418
     31 C30        -7.7476    6.8811   17.4263 C.3         1 Y5H      -0.0418
     32 H1         -3.5976   20.3231   22.9749 H           1 Y5H       0.0446
     33 H2         -3.6669   17.8268   23.1550 H           1 Y5H       0.0483
     34 H3         -2.4165   13.6074   19.2865 H           1 Y5H       0.0892
     35 H4         -3.4366   12.9983   23.0186 H           1 Y5H       0.1004
     36 H5         -1.6442   12.0712   20.8881 H           1 Y5H       0.2053
     37 H6         -1.6966    9.9285   21.4811 H           1 Y5H       0.0882
     38 H7         -1.9608    9.2758   23.7931 H           1 Y5H       0.0323
     39 H8         -2.9168   10.7301   24.1799 H           1 Y5H       0.0323
     40 H9          0.0526   10.5248   23.6220 H           1 Y5H       0.0319
     41 H10        -0.7747   11.5214   24.8430 H           1 Y5H       0.0319
     42 H11        -1.0390   13.2624   23.2979 H           1 Y5H       0.0815
     43 H12         0.0463   12.3680   22.2310 H           1 Y5H       0.0815
     44 H13        -4.4216    9.8097   22.3011 H           1 Y5H       0.0632
     45 H14        -5.2758   11.9743   22.1296 H           1 Y5H       0.0648
     46 H15        -4.0435   10.2373   17.5122 H           1 Y5H       0.0578
     47 H16        -5.3195   11.4243   17.5947 H           1 Y5H       0.0578
     48 H17        -6.7713    9.7482   17.1482 H           1 Y5H       0.0340
     49 H18        -6.5960    9.3189   18.8313 H           1 Y5H       0.0340
     50 H19        -4.4872    7.8911   17.8003 H           1 Y5H       0.0816
     51 H20        -5.4196    8.0639   16.3469 H           1 Y5H       0.0816
     52 H21        -6.6941    5.5657   19.5914 H           1 Y5H       0.0778
     53 H22        -6.6890    7.2902   19.9069 H           1 Y5H       0.0778
     54 H23        -5.1668    6.4427   19.6468 H           1 Y5H       0.0778
     55 H24        -5.7535    5.6987   16.0294 H           1 Y5H       0.0778
     56 H25        -6.2270    4.6497   17.3654 H           1 Y5H       0.0778
     57 H26        -4.6467    5.4390   17.3814 H           1 Y5H       0.0778
     58 H27        -8.2510    7.6974   17.9480 H           1 Y5H       0.0778
     59 H28        -8.2972    5.9639   17.6581 H           1 Y5H       0.0778
     60 H29        -7.8410    7.0632   16.3513 H           1 Y5H       0.0778
@<TRIPOS>BOND
     1     1     2   1
     2     2     3   2
     3     2     5   1
     4     3     4   1
     5     4     6   2
     6     5     6   1
     7     6     7   1
     8     7     8   2
     9     7     9   1
    10     8    11   1
    11     9    10   1
    12    10    11   2
    13    11    12   1
    14    12    13   1
    15    12    19   1
    16    13    14   1
    17    13    17   1
    18    14    15   1
    19    14    18   1
    20    15    16   1
    21    16    17   1
    22    18    19   1
    23    18    22   1
    24    19    20   1
    25    20    21   2
    26    20    24  am
    27    22    23   2
    28    22    24  am
    29    24    25   1
    30    25    26   1
    31    26    27   1
    32    27    28   1
    33    28    29   1
    34    28    30   1
    35    28    31   1
    36     3    32   1
    37     4    33   1
    38    10    34   1
    39    12    35   1
    40    13    36   1
    41    14    37   1
    42    15    38   1
    43    15    39   1
    44    16    40   1
    45    16    41   1
    46    17    42   1
    47    17    43   1
    48    18    44   1
    49    19    45   1
    50    25    46   1
    51    25    47   1
    52    26    48   1
    53    26    49   1
    54    27    50   1
    55    27    51   1
    56    29    52   1
    57    29    53   1
    58    29    54   1
    59    30    55   1
    60    30    56   1
    61    30    57   1
    62    31    58   1
    63    31    59   1
    64    31    60   1
@<TRIPOS>SUBSTRUCTURE
     1  Y5H      1

