@<TRIPOS>MOLECULE
2y5h_ligand_046
    60    64
SMALL
GAST_HUCK
****
This file was generated by PARSER (from files_GN.cpp)

@<TRIPOS>ATOM
      1 CL1        -7.9499    7.5054   19.9953 Cl          1 Y5H      -0.0522
      2 C25        -6.4856    8.3409   20.0280 C.2         1 Y5H       0.0990
      3 C24        -5.8724    9.0043   18.9639 C.2         1 Y5H      -0.0555
      4 C22        -4.6292    9.5814   19.2804 C.2         1 Y5H      -0.0588
      5 S1         -5.4514    8.4853   21.3907 S.3         1 Y5H      -0.0195
      6 C20        -4.2202    9.3966   20.6065 C.2         1 Y5H       0.0881
      7 C17        -3.0155    9.8132   21.1872 C.2         1 Y5H       0.1971
      8 N16        -2.6650    9.6188   22.4701 N.2         1 Y5H      -0.3009
      9 O10        -2.0091   10.4207   20.5183 O.3         1 Y5H      -0.2447
     10 C9         -1.0083   10.6000   21.4021 C.2         1 Y5H       0.0987
     11 C4         -1.4195   10.1005   22.6336 C.2         1 Y5H       0.0610
     12 C1         -0.6062   10.0582   23.8797 C.3         1 Y5H       0.0342
     13 N3         -1.0151    8.8906   24.7030 N.4         1 Y5H       0.2526
     14 C7         -2.0426    9.3330   25.6650 C.3         1 Y5H       0.0038
     15 C14        -1.9521    8.3705   26.8777 C.3         1 Y5H      -0.0022
     16 C15        -0.7524    7.4553   26.5719 C.3         1 Y5H      -0.0072
     17 C8          0.0347    8.2084   25.4898 C.3         1 Y5H      -0.0298
     18 C5         -1.7279   10.8278   25.9386 C.3         1 Y5H       0.1231
     19 C2         -0.7484   11.2751   24.8431 C.3         1 Y5H       0.1287
     20 C6         -1.3672   12.4821   24.3547 C.2         1 Y5H       0.2198
     21 O13        -0.8369   13.1614   23.4852 O.2         1 Y5H      -0.3852
     22 C11        -2.8193   11.7450   25.7642 C.2         1 Y5H       0.2184
     23 O18        -3.8539   11.6093   26.4035 O.2         1 Y5H      -0.3853
     24 N12        -2.5435   12.7203   24.9141 N.am        1 Y5H      -0.1843
     25 C19        -3.4116   13.8298   24.5800 C.3         1 Y5H       0.0635
     26 C21        -4.0940   14.5536   25.7885 C.3         1 Y5H       0.0123
     27 C23        -5.6146   14.2262   25.9916 C.3         1 Y5H      -0.0286
     28 N29        -6.6635   15.0853   25.2977 N.4         1 Y5H       0.2369
     29 C32        -8.0224   14.4542   25.5100 C.3         1 Y5H      -0.0418
     30 C31        -6.4242   15.1809   23.8122 C.3         1 Y5H      -0.0418
     31 C30        -6.7008   16.4737   25.8903 C.3         1 Y5H      -0.0418
     32 H1         -6.2849    9.0564   18.0313 H           1 Y5H       0.0446
     33 H2         -4.0701   10.0865   18.5893 H           1 Y5H       0.0483
     34 H3         -0.1010   11.0193   21.1919 H           1 Y5H       0.0892
     35 H4          0.4410    9.9525   23.5763 H           1 Y5H       0.1004
     36 H5         -1.4293    8.1896   24.0910 H           1 Y5H       0.2053
     37 H6         -3.0260    9.2343   25.1985 H           1 Y5H       0.0882
     38 H7         -2.8670    7.7786   26.9749 H           1 Y5H       0.0323
     39 H8         -1.7930    8.9070   27.8173 H           1 Y5H       0.0323
     40 H9         -1.1002    6.4964   26.1752 H           1 Y5H       0.0319
     41 H10        -0.1400    7.2758   27.4591 H           1 Y5H       0.0319
     42 H11         0.7225    8.9240   25.9533 H           1 Y5H       0.0815
     43 H12         0.6016    7.5195   24.8604 H           1 Y5H       0.0815
     44 H13        -1.2920   10.9751   26.9288 H           1 Y5H       0.0632
     45 H14         0.2234   11.5133   25.2870 H           1 Y5H       0.0648
     46 H15        -4.1572   13.4437   23.8865 H           1 Y5H       0.0578
     47 H16        -2.8522   14.5881   24.0252 H           1 Y5H       0.0578
     48 H17        -3.9613   15.6296   25.6827 H           1 Y5H       0.0340
     49 H18        -3.5502   14.2934   26.7011 H           1 Y5H       0.0340
     50 H19        -5.8060   14.2505   27.0711 H           1 Y5H       0.0816
     51 H20        -5.7645   13.1818   25.7029 H           1 Y5H       0.0816
     52 H21        -8.8220   15.0371   25.0458 H           1 Y5H       0.0778
     53 H22        -8.2557   14.3683   26.5730 H           1 Y5H       0.0778
     54 H23        -8.0699   13.4483   25.0858 H           1 Y5H       0.0778
     55 H24        -5.4725   15.6679   23.5895 H           1 Y5H       0.0778
     56 H25        -7.2066   15.7607   23.3136 H           1 Y5H       0.0778
     57 H26        -6.4104   14.1905   23.3502 H           1 Y5H       0.0778
     58 H27        -6.9294   16.4428   26.9573 H           1 Y5H       0.0778
     59 H28        -7.4658   17.0908   25.4141 H           1 Y5H       0.0778
     60 H29        -5.7545   17.0025   25.7771 H           1 Y5H       0.0778
@<TRIPOS>BOND
     1     1     2   1
     2     2     3   2
     3     2     5   1
     4     3     4   1
     5     4     6   2
     6     5     6   1
     7     6     7   1
     8     7     8   2
     9     7     9   1
    10     8    11   1
    11     9    10   1
    12    10    11   2
    13    11    12   1
    14    12    13   1
    15    12    19   1
    16    13    14   1
    17    13    17   1
    18    14    15   1
    19    14    18   1
    20    15    16   1
    21    16    17   1
    22    18    19   1
    23    18    22   1
    24    19    20   1
    25    20    21   2
    26    20    24  am
    27    22    23   2
    28    22    24  am
    29    24    25   1
    30    25    26   1
    31    26    27   1
    32    27    28   1
    33    28    29   1
    34    28    30   1
    35    28    31   1
    36     3    32   1
    37     4    33   1
    38    10    34   1
    39    12    35   1
    40    13    36   1
    41    14    37   1
    42    15    38   1
    43    15    39   1
    44    16    40   1
    45    16    41   1
    46    17    42   1
    47    17    43   1
    48    18    44   1
    49    19    45   1
    50    25    46   1
    51    25    47   1
    52    26    48   1
    53    26    49   1
    54    27    50   1
    55    27    51   1
    56    29    52   1
    57    29    53   1
    58    29    54   1
    59    30    55   1
    60    30    56   1
    61    30    57   1
    62    31    58   1
    63    31    59   1
    64    31    60   1
@<TRIPOS>SUBSTRUCTURE
     1  Y5H      1

