@<TRIPOS>MOLECULE
2y5h_ligand_064
    60    64
SMALL
GAST_HUCK
****
This file was generated by PARSER (from files_GN.cpp)

@<TRIPOS>ATOM
      1 CL1        -0.1245   15.6204   14.9267 Cl          1 Y5H      -0.0522
      2 C25        -0.3804   14.6551   16.2876 C.2         1 Y5H       0.0990
      3 C24         0.3967   13.5723   16.7014 C.2         1 Y5H      -0.0555
      4 C22        -0.0490   12.9603   17.8860 C.2         1 Y5H      -0.0588
      5 S1         -1.6503   14.8461   17.4298 S.3         1 Y5H      -0.0195
      6 C20        -1.1938   13.5376   18.4509 C.2         1 Y5H       0.0881
      7 C17        -1.8283   13.1575   19.6412 C.2         1 Y5H       0.1971
      8 N16        -2.9414   13.7253   20.1470 N.2         1 Y5H      -0.3009
      9 O10        -1.3840   12.1884   20.4715 O.3         1 Y5H      -0.2447
     10 C9         -2.2401   12.1500   21.5130 C.2         1 Y5H       0.0987
     11 C4         -3.2176   13.1203   21.3122 C.2         1 Y5H       0.0610
     12 C1         -4.3692   13.4605   22.1844 C.3         1 Y5H       0.0342
     13 N3         -4.2812   12.8709   23.5503 N.4         1 Y5H       0.2526
     14 C7         -5.6451   12.8349   24.1039 C.3         1 Y5H       0.0038
     15 C14        -5.7877   14.1463   24.9080 C.3         1 Y5H      -0.0022
     16 C15        -4.3750   14.3739   25.4728 C.3         1 Y5H      -0.0072
     17 C8         -3.4282   13.5889   24.5349 C.3         1 Y5H      -0.0298
     18 C5         -6.5987   12.6904   22.8922 C.3         1 Y5H       0.1231
     19 C2         -5.7682   13.0457   21.6484 C.3         1 Y5H       0.1287
     20 C6         -5.8699   11.8323   20.8692 C.2         1 Y5H       0.2198
     21 O13        -5.4122   11.8009   19.7313 O.2         1 Y5H      -0.3852
     22 C11        -7.0186   11.3414   22.6129 C.2         1 Y5H       0.2184
     23 O18        -7.7779   10.7520   23.3754 O.2         1 Y5H      -0.3853
     24 N12        -6.5804   10.8778   21.4495 N.am        1 Y5H      -0.1843
     25 C19        -7.0338    9.6241   20.8669 C.3         1 Y5H       0.0635
     26 C21        -6.0726    8.8116   19.9436 C.3         1 Y5H       0.0123
     27 C23        -6.8111    7.6869   19.1508 C.3         1 Y5H      -0.0286
     28 N29        -6.0522    6.9268   18.0689 N.4         1 Y5H       0.2369
     29 C32        -5.3874    7.8587   17.0865 C.3         1 Y5H      -0.0418
     30 C31        -7.0378    6.0650   17.3054 C.3         1 Y5H      -0.0418
     31 C30        -5.0023    6.0263   18.6704 C.3         1 Y5H      -0.0418
     32 H1          1.2233   13.2540   16.1926 H           1 Y5H       0.0446
     33 H2          0.4331   12.1617   18.3007 H           1 Y5H       0.0483
     34 H3         -2.1642   11.5153   22.3082 H           1 Y5H       0.0892
     35 H4         -4.3753   14.5537   22.2757 H           1 Y5H       0.1004
     36 H5         -3.9555   11.9060   23.4676 H           1 Y5H       0.2053
     37 H6         -5.7360   11.9873   24.7969 H           1 Y5H       0.0882
     38 H7         -6.5336   14.0524   25.7021 H           1 Y5H       0.0323
     39 H8         -6.0642   14.9803   24.2550 H           1 Y5H       0.0323
     40 H9         -4.3100   13.9782   26.4912 H           1 Y5H       0.0319
     41 H10        -4.1278   15.4405   25.4923 H           1 Y5H       0.0319
     42 H11        -2.7129   14.2639   24.0535 H           1 Y5H       0.0815
     43 H12        -2.8572   12.8535   25.1100 H           1 Y5H       0.0815
     44 H13        -7.4843   13.3294   22.9863 H           1 Y5H       0.0632
     45 H14        -6.2310   13.8705   21.0960 H           1 Y5H       0.0648
     46 H15        -7.9439    9.8546   20.3100 H           1 Y5H       0.0578
     47 H16        -7.3204    8.9380   21.6741 H           1 Y5H       0.0578
     48 H17        -5.2733    8.3924   20.5543 H           1 Y5H       0.0340
     49 H18        -5.6253    9.4790   19.2064 H           1 Y5H       0.0340
     50 H19        -7.6873    8.1732   18.7035 H           1 Y5H       0.0816
     51 H20        -7.1996    6.9726   19.8866 H           1 Y5H       0.0816
     52 H21        -4.9561    7.3151   16.2426 H           1 Y5H       0.0778
     53 H22        -4.5715    8.4149   17.5545 H           1 Y5H       0.0778
     54 H23        -6.1007    8.5852   16.6863 H           1 Y5H       0.0778
     55 H24        -7.5731    5.3784   17.9705 H           1 Y5H       0.0778
     56 H25        -6.5419    5.4586   16.5402 H           1 Y5H       0.0778
     57 H26        -7.7914    6.6747   16.7936 H           1 Y5H       0.0778
     58 H27        -4.2693    6.5942   19.2408 H           1 Y5H       0.0778
     59 H28        -4.4568    5.4779   17.8987 H           1 Y5H       0.0778
     60 H29        -5.4481    5.2893   19.3401 H           1 Y5H       0.0778
@<TRIPOS>BOND
     1     1     2   1
     2     2     3   2
     3     2     5   1
     4     3     4   1
     5     4     6   2
     6     5     6   1
     7     6     7   1
     8     7     8   2
     9     7     9   1
    10     8    11   1
    11     9    10   1
    12    10    11   2
    13    11    12   1
    14    12    13   1
    15    12    19   1
    16    13    14   1
    17    13    17   1
    18    14    15   1
    19    14    18   1
    20    15    16   1
    21    16    17   1
    22    18    19   1
    23    18    22   1
    24    19    20   1
    25    20    21   2
    26    20    24  am
    27    22    23   2
    28    22    24  am
    29    24    25   1
    30    25    26   1
    31    26    27   1
    32    27    28   1
    33    28    29   1
    34    28    30   1
    35    28    31   1
    36     3    32   1
    37     4    33   1
    38    10    34   1
    39    12    35   1
    40    13    36   1
    41    14    37   1
    42    15    38   1
    43    15    39   1
    44    16    40   1
    45    16    41   1
    46    17    42   1
    47    17    43   1
    48    18    44   1
    49    19    45   1
    50    25    46   1
    51    25    47   1
    52    26    48   1
    53    26    49   1
    54    27    50   1
    55    27    51   1
    56    29    52   1
    57    29    53   1
    58    29    54   1
    59    30    55   1
    60    30    56   1
    61    30    57   1
    62    31    58   1
    63    31    59   1
    64    31    60   1
@<TRIPOS>SUBSTRUCTURE
     1  Y5H      1

