@<TRIPOS>MOLECULE
2y5h_ligand_000
    60    64
SMALL
GAST_HUCK
****
This file was generated by PARSER (from files_GN.cpp)

@<TRIPOS>ATOM
      1 CL1       -10.4749    9.5721   22.3944 Cl          1 Y5H      -0.0522
      2 C25        -8.8383    9.4800   21.9706 C.2         1 Y5H       0.0990
      3 C24        -8.0426    8.3359   21.9461 C.2         1 Y5H      -0.0555
      4 C22        -6.7152    8.5587   21.5550 C.2         1 Y5H      -0.0588
      5 S1         -7.8506   10.8042   21.4726 S.3         1 Y5H      -0.0195
      6 C20        -6.4089    9.8951   21.2456 C.2         1 Y5H       0.0881
      7 C17        -5.1659   10.4167   20.8567 C.2         1 Y5H       0.1971
      8 N16        -4.9676   11.6897   20.4777 N.2         1 Y5H      -0.3009
      9 O10        -3.9977    9.7294   20.8645 O.3         1 Y5H      -0.2447
     10 C9         -3.0475   10.5997   20.4713 C.2         1 Y5H       0.0987
     11 C4         -3.6546   11.8310   20.2239 C.2         1 Y5H       0.0610
     12 C1         -3.0183   13.1104   19.8053 C.3         1 Y5H       0.0342
     13 N3         -2.1294   12.8894   18.6362 N.4         1 Y5H       0.2526
     14 C7         -0.7206   12.8571   19.0921 C.3         1 Y5H       0.0038
     15 C14         0.1112   13.4065   17.9097 C.3         1 Y5H      -0.0022
     16 C15        -0.9032   13.7066   16.7923 C.3         1 Y5H      -0.0072
     17 C8         -2.2232   13.8823   17.5405 C.3         1 Y5H      -0.0298
     18 C5         -0.6776   13.6619   20.4241 C.3         1 Y5H       0.1231
     19 C2         -2.1315   13.8272   20.8814 C.3         1 Y5H       0.1287
     20 C6         -2.1197   13.2659   22.2082 C.2         1 Y5H       0.2198
     21 O13        -3.1234   13.2712   22.9124 O.2         1 Y5H      -0.3852
     22 C11        -0.0898   12.9650   21.5470 C.2         1 Y5H       0.2184
     23 O18         1.0929   12.6433   21.5654 O.2         1 Y5H      -0.3853
     24 N12        -0.9634   12.7039   22.5046 N.am        1 Y5H      -0.1843
     25 C19        -0.7384   11.8973   23.6780 C.3         1 Y5H       0.0635
     26 C21        -0.5404   10.3924   23.3478 C.3         1 Y5H       0.0123
     27 C23        -1.1157    9.3538   24.3755 C.3         1 Y5H      -0.0286
     28 N29        -0.5260    9.1866   25.7726 N.4         1 Y5H       0.2369
     29 C32        -1.4375    9.7952   26.8196 C.3         1 Y5H      -0.0418
     30 C31         0.8419    9.8006   25.8994 C.3         1 Y5H      -0.0418
     31 C30        -0.4258    7.6971   26.0799 C.3         1 Y5H      -0.0418
     32 H1         -8.4037    7.4100   22.1893 H           1 Y5H       0.0446
     33 H2         -6.0266    7.8042   21.5024 H           1 Y5H       0.0483
     34 H3         -2.0525   10.3851   20.3733 H           1 Y5H       0.0892
     35 H4         -3.8387   13.7974   19.5543 H           1 Y5H       0.1004
     36 H5         -2.3443   11.9768   18.2249 H           1 Y5H       0.2053
     37 H6         -0.4442   11.8139   19.2657 H           1 Y5H       0.0882
     38 H7          0.8437   12.6698   17.5709 H           1 Y5H       0.0323
     39 H8          0.6393   14.3178   18.1810 H           1 Y5H       0.0323
     40 H9         -0.9726   12.8615   16.1037 H           1 Y5H       0.0319
     41 H10        -0.6426   14.6044   16.2335 H           1 Y5H       0.0319
     42 H11        -2.3043   14.9019   17.9270 H           1 Y5H       0.0815
     43 H12        -3.0781   13.6706   16.8983 H           1 Y5H       0.0815
     44 H13        -0.2088   14.6392   20.2996 H           1 Y5H       0.0632
     45 H14        -2.3894   14.8953   20.9488 H           1 Y5H       0.0648
     46 H15        -1.5721   11.9823   24.3767 H           1 Y5H       0.0578
     47 H16         0.1445   12.2993   24.1832 H           1 Y5H       0.0578
     48 H17         0.5201   10.1943   23.1883 H           1 Y5H       0.0340
     49 H18        -1.0239   10.1954   22.3844 H           1 Y5H       0.0340
     50 H19        -1.0550    8.3981   23.8318 H           1 Y5H       0.0816
     51 H20        -2.1899    9.5611   24.4420 H           1 Y5H       0.0816
     52 H21        -1.0685    9.5959   27.8251 H           1 Y5H       0.0778
     53 H22        -2.4532    9.3954   26.7633 H           1 Y5H       0.0778
     54 H23        -1.5040   10.8727   26.7013 H           1 Y5H       0.0778
     55 H24         1.5202    9.4187   25.1338 H           1 Y5H       0.0778
     56 H25         1.2749    9.6157   26.8843 H           1 Y5H       0.0778
     57 H26         0.7977   10.8785   25.8060 H           1 Y5H       0.0778
     58 H27        -1.3905    7.1982   25.9703 H           1 Y5H       0.0778
     59 H28        -0.0850    7.5128   27.1040 H           1 Y5H       0.0778
     60 H29         0.2742    7.2018   25.4019 H           1 Y5H       0.0778
@<TRIPOS>BOND
     1     1     2   1
     2     2     3   2
     3     2     5   1
     4     3     4   1
     5     4     6   2
     6     5     6   1
     7     6     7   1
     8     7     8   2
     9     7     9   1
    10     8    11   1
    11     9    10   1
    12    10    11   2
    13    11    12   1
    14    12    13   1
    15    12    19   1
    16    13    14   1
    17    13    17   1
    18    14    15   1
    19    14    18   1
    20    15    16   1
    21    16    17   1
    22    18    19   1
    23    18    22   1
    24    19    20   1
    25    20    21   2
    26    20    24  am
    27    22    23   2
    28    22    24  am
    29    24    25   1
    30    25    26   1
    31    26    27   1
    32    27    28   1
    33    28    29   1
    34    28    30   1
    35    28    31   1
    36     3    32   1
    37     4    33   1
    38    10    34   1
    39    12    35   1
    40    13    36   1
    41    14    37   1
    42    15    38   1
    43    15    39   1
    44    16    40   1
    45    16    41   1
    46    17    42   1
    47    17    43   1
    48    18    44   1
    49    19    45   1
    50    25    46   1
    51    25    47   1
    52    26    48   1
    53    26    49   1
    54    27    50   1
    55    27    51   1
    56    29    52   1
    57    29    53   1
    58    29    54   1
    59    30    55   1
    60    30    56   1
    61    30    57   1
    62    31    58   1
    63    31    59   1
    64    31    60   1
@<TRIPOS>SUBSTRUCTURE
     1  Y5H      1

