@<TRIPOS>MOLECULE
2y5h_ligand_014
    60    64
SMALL
GAST_HUCK
****
This file was generated by PARSER (from files_GN.cpp)

@<TRIPOS>ATOM
      1 CL1        -4.8973   13.8874   10.7392 Cl          1 Y5H      -0.0522
      2 C25        -4.8726   12.9148   12.1190 C.2         1 Y5H       0.0990
      3 C24        -5.1402   11.5445   12.1799 C.2         1 Y5H      -0.0555
      4 C22        -5.0117   10.9868   13.4630 C.2         1 Y5H      -0.0588
      5 S1         -4.4743   13.4339   13.7076 S.3         1 Y5H      -0.0195
      6 C20        -4.6416   11.8961   14.4625 C.2         1 Y5H       0.0881
      7 C17        -4.4146   11.6112   15.8135 C.2         1 Y5H       0.1971
      8 N16        -4.1498   12.5251   16.7641 N.2         1 Y5H      -0.3009
      9 O10        -4.3939   10.3648   16.3402 O.3         1 Y5H      -0.2447
     10 C9         -4.0976   10.5131   17.6443 C.2         1 Y5H       0.0987
     11 C4         -3.9603   11.8701   17.9201 C.2         1 Y5H       0.0610
     12 C1         -3.6266   12.5167   19.2177 C.3         1 Y5H       0.0342
     13 N3         -2.2307   12.1622   19.6005 N.4         1 Y5H       0.2526
     14 C7         -2.2702   11.1245   20.6501 C.3         1 Y5H       0.0038
     15 C14        -1.0045   11.3327   21.5252 C.3         1 Y5H      -0.0022
     16 C15        -0.2535   12.4996   20.8641 C.3         1 Y5H      -0.0072
     17 C8         -1.3519   13.2479   20.0964 C.3         1 Y5H      -0.0298
     18 C5         -3.6410   11.2843   21.3675 C.3         1 Y5H       0.1231
     19 C2         -4.5206   12.1431   20.4427 C.3         1 Y5H       0.1287
     20 C6         -5.6763   11.2985   20.2556 C.2         1 Y5H       0.2198
     21 O13        -6.6454   11.6608   19.5972 O.2         1 Y5H      -0.3852
     22 C11        -4.4088   10.0772   21.5014 C.2         1 Y5H       0.2184
     23 O18        -4.0345    9.1557   22.2098 O.2         1 Y5H      -0.3853
     24 N12        -5.5617   10.1280   20.8563 N.am        1 Y5H      -0.1843
     25 C19        -6.5734    9.0918   20.8504 C.3         1 Y5H       0.0635
     26 C21        -6.7694    8.4090   19.4562 C.3         1 Y5H       0.0123
     27 C23        -6.4504    6.8785   19.4331 C.3         1 Y5H      -0.0286
     28 N29        -6.5537    6.1314   18.1082 N.4         1 Y5H       0.2369
     29 C32        -5.3800    6.4446   17.2134 C.3         1 Y5H      -0.0418
     30 C31        -7.8362    6.4715   17.3881 C.3         1 Y5H      -0.0418
     31 C30        -6.5415    4.6440   18.3888 C.3         1 Y5H      -0.0418
     32 H1         -5.4036   10.9934   11.3599 H           1 Y5H       0.0446
     33 H2         -5.1770    9.9935   13.6453 H           1 Y5H       0.0483
     34 H3         -3.9895    9.7500   18.3121 H           1 Y5H       0.0892
     35 H4         -3.7064   13.5976   19.0543 H           1 Y5H       0.1004
     36 H5         -1.7636   11.7499   18.7896 H           1 Y5H       0.2053
     37 H6         -2.2017   10.1523   20.1464 H           1 Y5H       0.0882
     38 H7         -0.3795   10.4362   21.5423 H           1 Y5H       0.0323
     39 H8         -1.2572   11.5928   22.5546 H           1 Y5H       0.0323
     40 H9          0.4951   12.1190   20.1631 H           1 Y5H       0.0319
     41 H10         0.2372   13.1435   21.5984 H           1 Y5H       0.0319
     42 H11        -1.8856   13.9273   20.7691 H           1 Y5H       0.0815
     43 H12        -0.9328   13.8192   19.2642 H           1 Y5H       0.0815
     44 H13        -3.5426   11.7661   22.3445 H           1 Y5H       0.0632
     45 H14        -4.8327   13.0538   20.9686 H           1 Y5H       0.0648
     46 H15        -7.5214    9.5397   21.1639 H           1 Y5H       0.0578
     47 H16        -6.3499    8.3262   21.5970 H           1 Y5H       0.0578
     48 H17        -6.1628    8.9026   18.7010 H           1 Y5H       0.0340
     49 H18        -7.8087    8.5602   19.1565 H           1 Y5H       0.0340
     50 H19        -7.1430    6.4406   20.1522 H           1 Y5H       0.0816
     51 H20        -5.4424    6.7477   19.8447 H           1 Y5H       0.0816
     52 H21        -5.4632    5.9308   16.2477 H           1 Y5H       0.0778
     53 H22        -4.4363    6.1286   17.6701 H           1 Y5H       0.0778
     54 H23        -5.3013    7.5146   17.0056 H           1 Y5H       0.0778
     55 H24        -8.7006    6.3593   18.0500 H           1 Y5H       0.0778
     56 H25        -7.9971    5.8305   16.5156 H           1 Y5H       0.0778
     57 H26        -7.8272    7.5015   17.0193 H           1 Y5H       0.0778
     58 H27        -5.6225    4.3432   18.8998 H           1 Y5H       0.0778
     59 H28        -6.6064    4.0579   17.4659 H           1 Y5H       0.0778
     60 H29        -7.3818    4.3469   19.0227 H           1 Y5H       0.0778
@<TRIPOS>BOND
     1     1     2   1
     2     2     3   2
     3     2     5   1
     4     3     4   1
     5     4     6   2
     6     5     6   1
     7     6     7   1
     8     7     8   2
     9     7     9   1
    10     8    11   1
    11     9    10   1
    12    10    11   2
    13    11    12   1
    14    12    13   1
    15    12    19   1
    16    13    14   1
    17    13    17   1
    18    14    15   1
    19    14    18   1
    20    15    16   1
    21    16    17   1
    22    18    19   1
    23    18    22   1
    24    19    20   1
    25    20    21   2
    26    20    24  am
    27    22    23   2
    28    22    24  am
    29    24    25   1
    30    25    26   1
    31    26    27   1
    32    27    28   1
    33    28    29   1
    34    28    30   1
    35    28    31   1
    36     3    32   1
    37     4    33   1
    38    10    34   1
    39    12    35   1
    40    13    36   1
    41    14    37   1
    42    15    38   1
    43    15    39   1
    44    16    40   1
    45    16    41   1
    46    17    42   1
    47    17    43   1
    48    18    44   1
    49    19    45   1
    50    25    46   1
    51    25    47   1
    52    26    48   1
    53    26    49   1
    54    27    50   1
    55    27    51   1
    56    29    52   1
    57    29    53   1
    58    29    54   1
    59    30    55   1
    60    30    56   1
    61    30    57   1
    62    31    58   1
    63    31    59   1
    64    31    60   1
@<TRIPOS>SUBSTRUCTURE
     1  Y5H      1

