@<TRIPOS>MOLECULE
2y5h_ligand_018
    60    64
SMALL
GAST_HUCK
****
This file was generated by PARSER (from files_GN.cpp)

@<TRIPOS>ATOM
      1 CL1        -7.4850    6.0966   19.3673 Cl          1 Y5H      -0.0522
      2 C25        -7.3418    7.4433   20.3753 C.2         1 Y5H       0.0990
      3 C24        -8.2384    7.8503   21.3642 C.2         1 Y5H      -0.0555
      4 C22        -7.8644    9.0188   22.0470 C.2         1 Y5H      -0.0588
      5 S1         -6.0386    8.5664   20.3731 S.3         1 Y5H      -0.0195
      6 C20        -6.6429    9.5719   21.6310 C.2         1 Y5H       0.0881
      7 C17        -6.0152   10.7118   22.1534 C.2         1 Y5H       0.1971
      8 N16        -4.8158   11.1819   21.7686 N.2         1 Y5H      -0.3009
      9 O10        -6.5320   11.4922   23.1325 O.3         1 Y5H      -0.2447
     10 C9         -5.6279   12.4687   23.3579 C.2         1 Y5H       0.0987
     11 C4         -4.5429   12.2721   22.5080 C.2         1 Y5H       0.0610
     12 C1         -3.3424   13.1414   22.3998 C.3         1 Y5H       0.0342
     13 N3         -2.5375   12.7989   21.1924 N.4         1 Y5H       0.2526
     14 C7         -1.4138   11.9517   21.6248 C.3         1 Y5H       0.0038
     15 C14        -0.3108   12.1032   20.5505 C.3         1 Y5H      -0.0022
     16 C15        -0.7672   13.2755   19.6611 C.3         1 Y5H      -0.0072
     17 C8         -1.9381   13.9172   20.4244 C.3         1 Y5H      -0.0298
     18 C5         -1.0561   12.4672   23.0481 C.3         1 Y5H       0.1231
     19 C2         -2.3402   13.0957   23.6025 C.3         1 Y5H       0.1287
     20 C6         -2.5838   12.2624   24.7620 C.2         1 Y5H       0.2198
     21 O13        -3.5235   12.4800   25.5157 O.2         1 Y5H      -0.3852
     22 C11        -0.7529   11.4322   23.9987 C.2         1 Y5H       0.2184
     23 O18         0.2219   10.7175   23.8262 O.2         1 Y5H      -0.3853
     24 N12        -1.6501   11.3434   24.9696 N.am        1 Y5H      -0.1843
     25 C19        -1.6981   10.4105   26.0868 C.3         1 Y5H       0.0635
     26 C21        -0.4634    9.5068   26.3502 C.3         1 Y5H       0.0123
     27 C23        -0.5082    8.5858   27.6211 C.3         1 Y5H      -0.0286
     28 N29        -1.1149    7.1828   27.5880 N.4         1 Y5H       0.2369
     29 C32        -2.6231    7.2385   27.6024 C.3         1 Y5H      -0.0418
     30 C31        -0.6770    6.4158   28.8206 C.3         1 Y5H      -0.0418
     31 C30        -0.6593    6.3888   26.3883 C.3         1 Y5H      -0.0418
     32 H1         -9.0929    7.3377   21.5840 H           1 Y5H       0.0446
     33 H2         -8.4338    9.4210   22.7934 H           1 Y5H       0.0483
     34 H3         -5.7388   13.2279   24.0343 H           1 Y5H       0.0892
     35 H4         -3.7283   14.1613   22.2957 H           1 Y5H       0.1004
     36 H5         -3.1116   12.2610   20.5376 H           1 Y5H       0.2053
     37 H6         -1.7586   10.9097   21.6584 H           1 Y5H       0.0882
     38 H7         -0.2334   11.1894   19.9542 H           1 Y5H       0.0323
     39 H8          0.6657   12.3051   20.9985 H           1 Y5H       0.0323
     40 H9         -1.1168   12.8977   18.6947 H           1 Y5H       0.0319
     41 H10         0.0408   13.9934   19.4915 H           1 Y5H       0.0319
     42 H11        -1.5605   14.7062   21.0860 H           1 Y5H       0.0815
     43 H12        -2.6689   14.3504   19.7362 H           1 Y5H       0.0815
     44 H13        -0.2505   13.2083   23.0232 H           1 Y5H       0.0632
     45 H14        -2.1383   14.1166   23.9410 H           1 Y5H       0.0648
     46 H15        -2.5704    9.7712   25.9515 H           1 Y5H       0.0578
     47 H16        -1.8494   10.9870   27.0009 H           1 Y5H       0.0578
     48 H17         0.3929   10.1777   26.4508 H           1 Y5H       0.0340
     49 H18        -0.2618    8.9117   25.4669 H           1 Y5H       0.0340
     50 H19        -0.9678    9.1577   28.4322 H           1 Y5H       0.0816
     51 H20         0.5423    8.4941   27.9125 H           1 Y5H       0.0816
     52 H21        -3.0660    6.2441   27.7128 H           1 Y5H       0.0778
     53 H22        -3.0195    7.6700   26.6837 H           1 Y5H       0.0778
     54 H23        -2.9954    7.8422   28.4332 H           1 Y5H       0.0778
     55 H24         0.4100    6.2986   28.8512 H           1 Y5H       0.0778
     56 H25        -1.1002    5.4069   28.8592 H           1 Y5H       0.0778
     57 H26        -0.9826    6.9349   29.7323 H           1 Y5H       0.0778
     58 H27        -1.0472    6.8061   25.4600 H           1 Y5H       0.0778
     59 H28        -1.0075    5.3533   26.4183 H           1 Y5H       0.0778
     60 H29         0.4312    6.3703   26.3134 H           1 Y5H       0.0778
@<TRIPOS>BOND
     1     1     2   1
     2     2     3   2
     3     2     5   1
     4     3     4   1
     5     4     6   2
     6     5     6   1
     7     6     7   1
     8     7     8   2
     9     7     9   1
    10     8    11   1
    11     9    10   1
    12    10    11   2
    13    11    12   1
    14    12    13   1
    15    12    19   1
    16    13    14   1
    17    13    17   1
    18    14    15   1
    19    14    18   1
    20    15    16   1
    21    16    17   1
    22    18    19   1
    23    18    22   1
    24    19    20   1
    25    20    21   2
    26    20    24  am
    27    22    23   2
    28    22    24  am
    29    24    25   1
    30    25    26   1
    31    26    27   1
    32    27    28   1
    33    28    29   1
    34    28    30   1
    35    28    31   1
    36     3    32   1
    37     4    33   1
    38    10    34   1
    39    12    35   1
    40    13    36   1
    41    14    37   1
    42    15    38   1
    43    15    39   1
    44    16    40   1
    45    16    41   1
    46    17    42   1
    47    17    43   1
    48    18    44   1
    49    19    45   1
    50    25    46   1
    51    25    47   1
    52    26    48   1
    53    26    49   1
    54    27    50   1
    55    27    51   1
    56    29    52   1
    57    29    53   1
    58    29    54   1
    59    30    55   1
    60    30    56   1
    61    30    57   1
    62    31    58   1
    63    31    59   1
    64    31    60   1
@<TRIPOS>SUBSTRUCTURE
     1  Y5H      1

