@<TRIPOS>MOLECULE
2y5h_ligand_083
    60    64
SMALL
GAST_HUCK
****
This file was generated by PARSER (from files_GN.cpp)

@<TRIPOS>ATOM
      1 CL1        -6.9628   20.0576   24.7563 Cl          1 Y5H      -0.0522
      2 C25        -6.0851   18.6428   25.0277 C.2         1 Y5H       0.0990
      3 C24        -5.6814   18.1282   26.2670 C.2         1 Y5H      -0.0555
      4 C22        -4.9944   16.9107   26.1897 C.2         1 Y5H      -0.0588
      5 S1         -5.5332   17.5472   23.8251 S.3         1 Y5H      -0.0195
      6 C20        -4.7927   16.4153   24.8973 C.2         1 Y5H       0.0881
      7 C17        -4.1755   15.2142   24.5326 C.2         1 Y5H       0.1971
      8 N16        -3.7897   14.8794   23.2881 N.2         1 Y5H      -0.3009
      9 O10        -3.9056   14.1939   25.3883 O.3         1 Y5H      -0.2447
     10 C9         -3.3680   13.2059   24.6514 C.2         1 Y5H       0.0987
     11 C4         -3.2785   13.6317   23.3253 C.2         1 Y5H       0.0610
     12 C1         -2.8701   12.8661   22.1200 C.3         1 Y5H       0.0342
     13 N3         -3.9909   11.9513   21.7731 N.4         1 Y5H       0.2526
     14 C7         -3.6505   10.5925   22.2393 C.3         1 Y5H       0.0038
     15 C14        -4.4088    9.5967   21.3210 C.3         1 Y5H      -0.0022
     16 C15        -5.1575   10.4922   20.3180 C.3         1 Y5H      -0.0072
     17 C8         -4.3763   11.8164   20.3509 C.3         1 Y5H      -0.0298
     18 C5         -2.1001   10.5107   22.1944 C.3         1 Y5H       0.1231
     19 C2         -1.5970   11.9597   22.1861 C.3         1 Y5H       0.1287
     20 C6         -0.7649   11.9930   23.3697 C.2         1 Y5H       0.2198
     21 O13        -0.1478   13.0064   23.6735 O.2         1 Y5H      -0.3852
     22 C11        -1.5167    9.9737   23.3946 C.2         1 Y5H       0.2184
     23 O18        -1.7345    8.8176   23.7174 O.2         1 Y5H      -0.3853
     24 N12        -0.7991   10.8620   24.0636 N.am        1 Y5H      -0.1843
     25 C19        -0.3477   10.6977   25.4410 C.3         1 Y5H       0.0635
     26 C21         0.4896    9.4186   25.7863 C.3         1 Y5H       0.0123
     27 C23         0.1501    8.7515   27.1759 C.3         1 Y5H      -0.0286
     28 N29        -0.8923    7.6372   27.2591 N.4         1 Y5H       0.2369
     29 C32        -0.8798    7.0338   28.6518 C.3         1 Y5H      -0.0418
     30 C31        -0.5876    6.5273   26.2778 C.3         1 Y5H      -0.0418
     31 C30        -2.2892    8.1639   27.0327 C.3         1 Y5H      -0.0418
     32 H1         -5.8903   18.5920   27.1541 H           1 Y5H       0.0446
     33 H2         -4.6474   16.4240   27.0182 H           1 Y5H       0.0483
     34 H3         -3.0965   12.2843   25.0042 H           1 Y5H       0.0892
     35 H4         -2.7363   13.5892   21.3154 H           1 Y5H       0.1004
     36 H5         -4.8362   12.2378   22.2772 H           1 Y5H       0.2053
     37 H6         -4.0228   10.4852   23.2695 H           1 Y5H       0.0882
     38 H7         -5.1150    8.9914   21.8998 H           1 Y5H       0.0323
     39 H8         -3.7305    8.9250   20.7868 H           1 Y5H       0.0323
     40 H9         -6.1872   10.6625   20.6635 H           1 Y5H       0.0319
     41 H10        -5.1794   10.0625   19.3149 H           1 Y5H       0.0319
     42 H11        -3.5014   11.7565   19.6954 H           1 Y5H       0.0815
     43 H12        -5.0064   12.6572   20.0384 H           1 Y5H       0.0815
     44 H13        -1.7177    9.9647   21.3230 H           1 Y5H       0.0632
     45 H14        -0.9656   12.1331   21.3071 H           1 Y5H       0.0648
     46 H15        -1.2488   10.7554   26.0712 H           1 Y5H       0.0578
     47 H16         0.2732   11.5706   25.7252 H           1 Y5H       0.0578
     48 H17         1.5440    9.7333   25.8390 H           1 Y5H       0.0340
     49 H18         0.4326    8.6889   24.9772 H           1 Y5H       0.0340
     50 H19        -0.1268    9.5422   27.8957 H           1 Y5H       0.0816
     51 H20         1.0995    8.3420   27.5607 H           1 Y5H       0.0816
     52 H21        -1.6533    6.2653   28.7749 H           1 Y5H       0.0778
     53 H22        -1.0558    7.7895   29.4198 H           1 Y5H       0.0778
     54 H23         0.0796    6.5565   28.8709 H           1 Y5H       0.0778
     55 H24        -0.7388    6.8563   25.2445 H           1 Y5H       0.0778
     56 H25        -1.2308    5.6465   26.4376 H           1 Y5H       0.0778
     57 H26         0.4524    6.1947   26.3799 H           1 Y5H       0.0778
     58 H27        -2.5865    8.8638   27.8185 H           1 Y5H       0.0778
     59 H28        -3.0268    7.3532   27.0134 H           1 Y5H       0.0778
     60 H29        -2.3769    8.6867   26.0906 H           1 Y5H       0.0778
@<TRIPOS>BOND
     1     1     2   1
     2     2     3   2
     3     2     5   1
     4     3     4   1
     5     4     6   2
     6     5     6   1
     7     6     7   1
     8     7     8   2
     9     7     9   1
    10     8    11   1
    11     9    10   1
    12    10    11   2
    13    11    12   1
    14    12    13   1
    15    12    19   1
    16    13    14   1
    17    13    17   1
    18    14    15   1
    19    14    18   1
    20    15    16   1
    21    16    17   1
    22    18    19   1
    23    18    22   1
    24    19    20   1
    25    20    21   2
    26    20    24  am
    27    22    23   2
    28    22    24  am
    29    24    25   1
    30    25    26   1
    31    26    27   1
    32    27    28   1
    33    28    29   1
    34    28    30   1
    35    28    31   1
    36     3    32   1
    37     4    33   1
    38    10    34   1
    39    12    35   1
    40    13    36   1
    41    14    37   1
    42    15    38   1
    43    15    39   1
    44    16    40   1
    45    16    41   1
    46    17    42   1
    47    17    43   1
    48    18    44   1
    49    19    45   1
    50    25    46   1
    51    25    47   1
    52    26    48   1
    53    26    49   1
    54    27    50   1
    55    27    51   1
    56    29    52   1
    57    29    53   1
    58    29    54   1
    59    30    55   1
    60    30    56   1
    61    30    57   1
    62    31    58   1
    63    31    59   1
    64    31    60   1
@<TRIPOS>SUBSTRUCTURE
     1  Y5H      1

