@<TRIPOS>MOLECULE
2y5h_ligand_074
    60    64
SMALL
GAST_HUCK
****
This file was generated by PARSER (from files_GN.cpp)

@<TRIPOS>ATOM
      1 CL1        -7.0319   16.7199   25.8711 Cl          1 Y5H      -0.0522
      2 C25        -5.7331   15.6894   25.5648 C.2         1 Y5H       0.0990
      3 C24        -5.1346   14.8098   26.4714 C.2         1 Y5H      -0.0555
      4 C22        -4.0668   14.0692   25.9393 C.2         1 Y5H      -0.0588
      5 S1         -4.9016   15.5312   24.0690 S.3         1 Y5H      -0.0195
      6 C20        -3.7809   14.3340   24.5941 C.2         1 Y5H       0.0881
      7 C17        -2.7802   13.7329   23.8183 C.2         1 Y5H       0.1971
      8 N16        -2.5367   13.9980   22.5231 N.2         1 Y5H      -0.3009
      9 O10        -1.9177   12.7924   24.2695 O.3         1 Y5H      -0.2447
     10 C9         -1.1215   12.4694   23.2307 C.2         1 Y5H       0.0987
     11 C4         -1.5092   13.2276   22.1284 C.2         1 Y5H       0.0610
     12 C1         -0.9119   13.2022   20.7651 C.3         1 Y5H       0.0342
     13 N3         -1.2625   14.4408   20.0127 N.4         1 Y5H       0.2526
     14 C7         -2.4686   14.1661   19.2066 C.3         1 Y5H       0.0038
     15 C14        -2.4317   15.1660   18.0223 C.3         1 Y5H      -0.0022
     16 C15        -1.0644   15.8680   18.1258 C.3         1 Y5H      -0.0072
     17 C8         -0.2491   14.9785   19.0747 C.3         1 Y5H      -0.0298
     18 C5         -2.3673   12.6599   18.8358 C.3         1 Y5H       0.1231
     19 C2         -1.3811   12.0345   19.8421 C.3         1 Y5H       0.1287
     20 C6         -2.1651   10.9519   20.3926 C.2         1 Y5H       0.2198
     21 O13        -1.6966   10.1574   21.1964 O.2         1 Y5H      -0.3852
     22 C11        -3.5612   11.8799   19.0313 C.2         1 Y5H       0.2184
     23 O18        -4.5926   12.1039   18.4117 O.2         1 Y5H      -0.3853
     24 N12        -3.3962   10.9077   19.9129 N.am        1 Y5H      -0.1843
     25 C19        -4.4125    9.9503   20.2910 C.3         1 Y5H       0.0635
     26 C21        -4.5938    8.8438   19.2178 C.3         1 Y5H       0.0123
     27 C23        -5.8597    7.9592   19.4543 C.3         1 Y5H      -0.0286
     28 N29        -6.2537    6.9447   18.3888 N.4         1 Y5H       0.2369
     29 C32        -6.4672    7.6161   17.0527 C.3         1 Y5H      -0.0418
     30 C31        -7.5537    6.2849   18.7975 C.3         1 Y5H      -0.0418
     31 C30        -5.2076    5.8688   18.2448 C.3         1 Y5H      -0.0418
     32 H1         -5.4479   14.7129   27.4394 H           1 Y5H       0.0446
     33 H2         -3.5431   13.3871   26.4917 H           1 Y5H       0.0483
     34 H3         -0.3725   11.7753   23.2663 H           1 Y5H       0.0892
     35 H4          0.1745   13.1507   20.8945 H           1 Y5H       0.1004
     36 H5         -1.4781   15.1919   20.6748 H           1 Y5H       0.2053
     37 H6         -3.3545   14.3598   19.8220 H           1 Y5H       0.0882
     38 H7         -3.2401   15.8987   18.1047 H           1 Y5H       0.0323
     39 H8         -2.5316   14.6583   17.0604 H           1 Y5H       0.0323
     40 H9         -1.1840   16.8661   18.5634 H           1 Y5H       0.0319
     41 H10        -0.5805   15.9645   17.1505 H           1 Y5H       0.0319
     42 H11         0.2425   14.1820   18.5095 H           1 Y5H       0.0815
     43 H12         0.5092   15.5575   19.6096 H           1 Y5H       0.0815
     44 H13        -1.9969   12.5146   17.8154 H           1 Y5H       0.0632
     45 H14        -0.5167   11.6125   19.3119 H           1 Y5H       0.0648
     46 H15        -5.3567   10.4792   20.4416 H           1 Y5H       0.0578
     47 H16        -4.1666    9.4731   21.2430 H           1 Y5H       0.0578
     48 H17        -3.7007    8.2186   19.2307 H           1 Y5H       0.0340
     49 H18        -4.6557    9.3227   18.2397 H           1 Y5H       0.0340
     50 H19        -6.7011    8.6485   19.6029 H           1 Y5H       0.0816
     51 H20        -5.7133    7.4433   20.4101 H           1 Y5H       0.0816
     52 H21        -6.8632    6.9193   16.3077 H           1 Y5H       0.0778
     53 H22        -5.5364    8.0183   16.6445 H           1 Y5H       0.0778
     54 H23        -7.1774    8.4441   17.1357 H           1 Y5H       0.0778
     55 H24        -7.4607    5.7842   19.7655 H           1 Y5H       0.0778
     56 H25        -7.8694    5.5287   18.0716 H           1 Y5H       0.0778
     57 H26        -8.3665    7.0125   18.8821 H           1 Y5H       0.0778
     58 H27        -4.2552    6.2756   17.9024 H           1 Y5H       0.0778
     59 H28        -5.5104    5.1110   17.5162 H           1 Y5H       0.0778
     60 H29        -5.0293    5.3591   19.1950 H           1 Y5H       0.0778
@<TRIPOS>BOND
     1     1     2   1
     2     2     3   2
     3     2     5   1
     4     3     4   1
     5     4     6   2
     6     5     6   1
     7     6     7   1
     8     7     8   2
     9     7     9   1
    10     8    11   1
    11     9    10   1
    12    10    11   2
    13    11    12   1
    14    12    13   1
    15    12    19   1
    16    13    14   1
    17    13    17   1
    18    14    15   1
    19    14    18   1
    20    15    16   1
    21    16    17   1
    22    18    19   1
    23    18    22   1
    24    19    20   1
    25    20    21   2
    26    20    24  am
    27    22    23   2
    28    22    24  am
    29    24    25   1
    30    25    26   1
    31    26    27   1
    32    27    28   1
    33    28    29   1
    34    28    30   1
    35    28    31   1
    36     3    32   1
    37     4    33   1
    38    10    34   1
    39    12    35   1
    40    13    36   1
    41    14    37   1
    42    15    38   1
    43    15    39   1
    44    16    40   1
    45    16    41   1
    46    17    42   1
    47    17    43   1
    48    18    44   1
    49    19    45   1
    50    25    46   1
    51    25    47   1
    52    26    48   1
    53    26    49   1
    54    27    50   1
    55    27    51   1
    56    29    52   1
    57    29    53   1
    58    29    54   1
    59    30    55   1
    60    30    56   1
    61    30    57   1
    62    31    58   1
    63    31    59   1
    64    31    60   1
@<TRIPOS>SUBSTRUCTURE
     1  Y5H      1

