@<TRIPOS>MOLECULE
2y5h_ligand_078
    60    64
SMALL
GAST_HUCK
****
This file was generated by PARSER (from files_GN.cpp)

@<TRIPOS>ATOM
      1 CL1       -10.1240   15.6197   24.5451 Cl          1 Y5H      -0.0522
      2 C25        -8.5797   14.9446   24.4765 C.2         1 Y5H       0.0990
      3 C24        -7.8673   14.3619   25.5267 C.2         1 Y5H      -0.0555
      4 C22        -6.5916   13.8872   25.1722 C.2         1 Y5H      -0.0588
      5 S1         -7.5878   14.8592   23.0784 S.3         1 Y5H      -0.0195
      6 C20        -6.2522   14.0760   23.8274 C.2         1 Y5H       0.0881
      7 C17        -5.0568   13.7201   23.1852 C.2         1 Y5H       0.1971
      8 N16        -4.8084   13.9182   21.8791 N.2         1 Y5H      -0.3009
      9 O10        -3.9761   13.1625   23.7789 O.3         1 Y5H      -0.2447
     10 C9         -3.0428   13.0113   22.8151 C.2         1 Y5H       0.0987
     11 C4         -3.5674   13.4758   21.6125 C.2         1 Y5H       0.0610
     12 C1         -2.8709   13.5601   20.2981 C.3         1 Y5H       0.0342
     13 N3         -3.6570   14.4067   19.3523 N.4         1 Y5H       0.2526
     14 C7         -4.4525   13.5200   18.4864 C.3         1 Y5H       0.0038
     15 C14        -4.6990   14.2919   17.1645 C.3         1 Y5H      -0.0022
     16 C15        -3.9443   15.6207   17.3405 C.3         1 Y5H      -0.0072
     17 C8         -2.9271   15.3284   18.4543 C.3         1 Y5H      -0.0298
     18 C5         -3.6186   12.2163   18.3616 C.3         1 Y5H       0.1231
     19 C2         -2.6300   12.2122   19.5403 C.3         1 Y5H       0.1287
     20 C6         -2.9360   10.9459   20.1693 C.2         1 Y5H       0.2198
     21 O13        -2.2928   10.5332   21.1262 O.2         1 Y5H      -0.3852
     22 C11        -4.3710   11.0092   18.5655 C.2         1 Y5H       0.2184
     23 O18        -5.2988   10.7091   17.8245 O.2         1 Y5H      -0.3853
     24 N12        -3.9426   10.3034   19.5945 N.am        1 Y5H      -0.1843
     25 C19        -4.5562    9.0802   20.0710 C.3         1 Y5H       0.0635
     26 C21        -4.7214    7.9332   19.0142 C.3         1 Y5H       0.0123
     27 C23        -6.2151    7.5619   18.7258 C.3         1 Y5H      -0.0286
     28 N29        -6.5417    6.3270   17.8995 N.4         1 Y5H       0.2369
     29 C32        -5.7982    6.3289   16.5895 C.3         1 Y5H      -0.0418
     30 C31        -8.0280    6.3207   17.6056 C.3         1 Y5H      -0.0418
     31 C30        -6.2079    5.0630   18.6561 C.3         1 Y5H      -0.0418
     32 H1         -8.2391   14.2919   26.4754 H           1 Y5H       0.0446
     33 H2         -5.9693   13.4420   25.8485 H           1 Y5H       0.0483
     34 H3         -2.1051   12.6336   22.9581 H           1 Y5H       0.0892
     35 H4         -1.9058   14.0403   20.4973 H           1 Y5H       0.1004
     36 H5         -4.3052   14.9870   19.8883 H           1 Y5H       0.2053
     37 H6         -5.4102   13.3306   18.9894 H           1 Y5H       0.0882
     38 H7         -5.7653   14.4716   17.0071 H           1 Y5H       0.0323
     39 H8         -4.3132   13.7517   16.2962 H           1 Y5H       0.0323
     40 H9         -4.6365   16.4040   17.6660 H           1 Y5H       0.0319
     41 H10        -3.4531   15.9380   16.4169 H           1 Y5H       0.0319
     42 H11        -2.0320   14.8583   18.0335 H           1 Y5H       0.0815
     43 H12        -2.6432   16.2436   18.9802 H           1 Y5H       0.0815
     44 H13        -3.0735   12.1648   17.4143 H           1 Y5H       0.0632
     45 H14        -1.6010   12.1837   19.1645 H           1 Y5H       0.0648
     46 H15        -5.5293    9.3686   20.4776 H           1 Y5H       0.0578
     47 H16        -3.9992    8.6761   20.9210 H           1 Y5H       0.0578
     48 H17        -4.1902    7.0507   19.3747 H           1 Y5H       0.0340
     49 H18        -4.2392    8.2187   18.0763 H           1 Y5H       0.0340
     50 H19        -6.6537    8.4424   18.2456 H           1 Y5H       0.0816
     51 H20        -6.7210    7.4637   19.6927 H           1 Y5H       0.0816
     52 H21        -6.0984    5.4858   15.9637 H           1 Y5H       0.0778
     53 H22        -4.7216    6.2406   16.7392 H           1 Y5H       0.0778
     54 H23        -5.9863    7.2472   16.0257 H           1 Y5H       0.0778
     55 H24        -8.6180    6.3362   18.5254 H           1 Y5H       0.0778
     56 H25        -8.3291    5.4348   17.0377 H           1 Y5H       0.0778
     57 H26        -8.3228    7.1928   17.0164 H           1 Y5H       0.0778
     58 H27        -5.1372    4.9740   18.8460 H           1 Y5H       0.0778
     59 H28        -6.5022    4.1714   18.0967 H           1 Y5H       0.0778
     60 H29        -6.7181    5.0273   19.6228 H           1 Y5H       0.0778
@<TRIPOS>BOND
     1     1     2   1
     2     2     3   2
     3     2     5   1
     4     3     4   1
     5     4     6   2
     6     5     6   1
     7     6     7   1
     8     7     8   2
     9     7     9   1
    10     8    11   1
    11     9    10   1
    12    10    11   2
    13    11    12   1
    14    12    13   1
    15    12    19   1
    16    13    14   1
    17    13    17   1
    18    14    15   1
    19    14    18   1
    20    15    16   1
    21    16    17   1
    22    18    19   1
    23    18    22   1
    24    19    20   1
    25    20    21   2
    26    20    24  am
    27    22    23   2
    28    22    24  am
    29    24    25   1
    30    25    26   1
    31    26    27   1
    32    27    28   1
    33    28    29   1
    34    28    30   1
    35    28    31   1
    36     3    32   1
    37     4    33   1
    38    10    34   1
    39    12    35   1
    40    13    36   1
    41    14    37   1
    42    15    38   1
    43    15    39   1
    44    16    40   1
    45    16    41   1
    46    17    42   1
    47    17    43   1
    48    18    44   1
    49    19    45   1
    50    25    46   1
    51    25    47   1
    52    26    48   1
    53    26    49   1
    54    27    50   1
    55    27    51   1
    56    29    52   1
    57    29    53   1
    58    29    54   1
    59    30    55   1
    60    30    56   1
    61    30    57   1
    62    31    58   1
    63    31    59   1
    64    31    60   1
@<TRIPOS>SUBSTRUCTURE
     1  Y5H      1

