@<TRIPOS>MOLECULE
2y5h_ligand_042
    60    64
SMALL
GAST_HUCK
****
This file was generated by PARSER (from files_GN.cpp)

@<TRIPOS>ATOM
      1 CL1        -6.8714    4.8773   18.8006 Cl          1 Y5H      -0.0522
      2 C25        -6.0759    6.3538   18.6065 C.2         1 Y5H       0.0990
      3 C24        -5.4933    6.8425   17.4355 C.2         1 Y5H      -0.0555
      4 C22        -4.9215    8.1210   17.5656 C.2         1 Y5H      -0.0588
      5 S1         -5.8666    7.5503   19.8254 S.3         1 Y5H      -0.0195
      6 C20        -5.0247    8.6832   18.8425 C.2         1 Y5H       0.0881
      7 C17        -4.5640    9.9450   19.2350 C.2         1 Y5H       0.1971
      8 N16        -4.7074   10.4991   20.4524 N.2         1 Y5H      -0.3009
      9 O10        -3.9191   10.7939   18.4077 O.3         1 Y5H      -0.2447
     10 C9         -3.6481   11.8948   19.1308 C.2         1 Y5H       0.0987
     11 C4         -4.1384   11.7170   20.4223 C.2         1 Y5H       0.0610
     12 C1         -4.1155   12.6629   21.5747 C.3         1 Y5H       0.0342
     13 N3         -3.6225   14.0075   21.1679 N.4         1 Y5H       0.2526
     14 C7         -2.1987   14.1171   21.5337 C.3         1 Y5H       0.0038
     15 C14        -1.9171   15.6319   21.6843 C.3         1 Y5H      -0.0022
     16 C15        -3.2766   16.3179   21.4488 C.3         1 Y5H      -0.0072
     17 C8         -4.3070   15.2068   21.6954 C.3         1 Y5H      -0.0298
     18 C5         -2.0447   13.2524   22.8121 C.3         1 Y5H       0.1231
     19 C2         -3.2191   12.2588   22.7887 C.3         1 Y5H       0.1287
     20 C6         -2.5305   10.9893   22.7778 C.2         1 Y5H       0.2198
     21 O13        -3.1390    9.9303   22.8239 O.2         1 Y5H      -0.3852
     22 C11        -0.8891   12.3927   22.8370 C.2         1 Y5H       0.2184
     23 O18         0.2501   12.8407   22.8746 O.2         1 Y5H      -0.3853
     24 N12        -1.2132   11.1118   22.8197 N.am        1 Y5H      -0.1843
     25 C19        -0.2803   10.0093   22.8485 C.3         1 Y5H       0.0635
     26 C21         0.0821    9.5259   24.2801 C.3         1 Y5H       0.0123
     27 C23        -1.1307    9.1320   25.1830 C.3         1 Y5H      -0.0286
     28 N29        -0.8684    8.3851   26.4831 N.4         1 Y5H       0.2369
     29 C32         0.1371    9.1227   27.3341 C.3         1 Y5H      -0.0418
     30 C31        -0.3886    6.9753   26.2273 C.3         1 Y5H      -0.0418
     31 C30        -2.1645    8.2981   27.2669 C.3         1 Y5H      -0.0418
     32 H1         -5.4874    6.3256   16.5549 H           1 Y5H       0.0446
     33 H2         -4.4779    8.6015   16.7847 H           1 Y5H       0.0483
     34 H3         -3.1686   12.7141   18.7598 H           1 Y5H       0.0892
     35 H4         -5.1546   12.7426   21.9154 H           1 Y5H       0.1004
     36 H5         -3.6938   14.0948   20.1592 H           1 Y5H       0.2053
     37 H6         -1.6025   13.7084   20.7075 H           1 Y5H       0.0882
     38 H7         -1.1862   15.9701   20.9430 H           1 Y5H       0.0323
     39 H8         -1.5343   15.8732   22.6780 H           1 Y5H       0.0323
     40 H9         -3.3469   16.6601   20.4113 H           1 Y5H       0.0319
     41 H10        -3.4275   17.1681   22.1213 H           1 Y5H       0.0319
     42 H11        -4.5160   15.1079   22.7620 H           1 Y5H       0.0815
     43 H12        -5.2370   15.4002   21.1506 H           1 Y5H       0.0815
     44 H13        -2.0804   13.8554   23.7229 H           1 Y5H       0.0632
     45 H14        -3.7912   12.3375   23.7205 H           1 Y5H       0.0648
     46 H15         0.6464   10.2878   22.3350 H           1 Y5H       0.0578
     47 H16        -0.6869    9.1664   22.2774 H           1 Y5H       0.0578
     48 H17         0.6407   10.3217   24.7736 H           1 Y5H       0.0340
     49 H18         0.7550    8.6709   24.1672 H           1 Y5H       0.0340
     50 H19        -1.8123    8.5291   24.5734 H           1 Y5H       0.0816
     51 H20        -1.6512   10.0709   25.4020 H           1 Y5H       0.0816
     52 H21         0.3017    8.6175   28.2862 H           1 Y5H       0.0778
     53 H22        -0.2129   10.1347   27.5427 H           1 Y5H       0.0778
     54 H23         1.1056    9.1957   26.8419 H           1 Y5H       0.0778
     55 H24        -1.1215    6.4090   25.6477 H           1 Y5H       0.0778
     56 H25        -0.2185    6.4371   27.1622 H           1 Y5H       0.0778
     57 H26         0.5452    6.9569   25.6717 H           1 Y5H       0.0778
     58 H27        -2.5864    9.2927   27.4647 H           1 Y5H       0.0778
     59 H28        -2.0208    7.8139   28.2394 H           1 Y5H       0.0778
     60 H29        -2.9267    7.7254   26.7204 H           1 Y5H       0.0778
@<TRIPOS>BOND
     1     1     2   1
     2     2     3   2
     3     2     5   1
     4     3     4   1
     5     4     6   2
     6     5     6   1
     7     6     7   1
     8     7     8   2
     9     7     9   1
    10     8    11   1
    11     9    10   1
    12    10    11   2
    13    11    12   1
    14    12    13   1
    15    12    19   1
    16    13    14   1
    17    13    17   1
    18    14    15   1
    19    14    18   1
    20    15    16   1
    21    16    17   1
    22    18    19   1
    23    18    22   1
    24    19    20   1
    25    20    21   2
    26    20    24  am
    27    22    23   2
    28    22    24  am
    29    24    25   1
    30    25    26   1
    31    26    27   1
    32    27    28   1
    33    28    29   1
    34    28    30   1
    35    28    31   1
    36     3    32   1
    37     4    33   1
    38    10    34   1
    39    12    35   1
    40    13    36   1
    41    14    37   1
    42    15    38   1
    43    15    39   1
    44    16    40   1
    45    16    41   1
    46    17    42   1
    47    17    43   1
    48    18    44   1
    49    19    45   1
    50    25    46   1
    51    25    47   1
    52    26    48   1
    53    26    49   1
    54    27    50   1
    55    27    51   1
    56    29    52   1
    57    29    53   1
    58    29    54   1
    59    30    55   1
    60    30    56   1
    61    30    57   1
    62    31    58   1
    63    31    59   1
    64    31    60   1
@<TRIPOS>SUBSTRUCTURE
     1  Y5H      1

