@<TRIPOS>MOLECULE
2y5h_ligand_053
    60    64
SMALL
GAST_HUCK
****
This file was generated by PARSER (from files_GN.cpp)

@<TRIPOS>ATOM
      1 CL1        -1.7360   17.8438   18.9399 Cl          1 Y5H      -0.0522
      2 C25        -2.5194   16.7829   19.9905 C.2         1 Y5H       0.0990
      3 C24        -2.0663   16.3576   21.2410 C.2         1 Y5H      -0.0555
      4 C22        -2.9220   15.4542   21.8967 C.2         1 Y5H      -0.0588
      5 S1         -4.0240   16.0013   19.6968 S.3         1 Y5H      -0.0195
      6 C20        -4.0822   15.1307   21.1826 C.2         1 Y5H       0.0881
      7 C17        -5.0896   14.2423   21.5729 C.2         1 Y5H       0.1971
      8 N16        -6.1812   13.9556   20.8434 N.2         1 Y5H      -0.3009
      9 O10        -5.0725   13.4964   22.7049 O.3         1 Y5H      -0.2447
     10 C9         -6.1849   12.7349   22.6757 C.2         1 Y5H       0.0987
     11 C4         -6.8831   13.0201   21.5024 C.2         1 Y5H       0.0610
     12 C1         -8.1144   12.3751   20.9735 C.3         1 Y5H       0.0342
     13 N3         -9.1603   12.2107   22.0238 N.4         1 Y5H       0.2526
     14 C7         -9.1184   10.8127   22.4995 C.3         1 Y5H       0.0038
     15 C14       -10.5364   10.4950   23.0428 C.3         1 Y5H      -0.0022
     16 C15       -11.4059   11.7013   22.6489 C.3         1 Y5H      -0.0072
     17 C8        -10.5705   12.4540   21.6069 C.3         1 Y5H      -0.0298
     18 C5         -8.6623    9.9808   21.2707 C.3         1 Y5H       0.1231
     19 C2         -7.9204   10.9608   20.3449 C.3         1 Y5H       0.1287
     20 C6         -6.6106   10.3602   20.2388 C.2         1 Y5H       0.2198
     21 O13        -5.7336   10.8600   19.5430 O.2         1 Y5H      -0.3852
     22 C11        -7.6558    8.9859   21.5228 C.2         1 Y5H       0.2184
     23 O18        -7.8875    8.0142   22.2380 O.2         1 Y5H      -0.3853
     24 N12        -6.5273    9.1996   20.8641 N.am        1 Y5H      -0.1843
     25 C19        -5.3998    8.2928   20.7667 C.3         1 Y5H       0.0635
     26 C21        -5.0455    7.8122   19.3238 C.3         1 Y5H       0.0123
     27 C23        -6.2271    7.6538   18.3034 C.3         1 Y5H      -0.0286
     28 N29        -6.8688    6.2980   18.0355 N.4         1 Y5H       0.2369
     29 C32        -6.0064    5.4610   17.1175 C.3         1 Y5H      -0.0418
     30 C31        -8.2045    6.5163   17.3493 C.3         1 Y5H      -0.0418
     31 C30        -7.1144    5.5273   19.3071 C.3         1 Y5H      -0.0418
     32 H1         -1.1832   16.6737   21.6457 H           1 Y5H       0.0446
     33 H2         -2.7055   15.0704   22.8169 H           1 Y5H       0.0483
     34 H3         -6.4369   12.0369   23.3813 H           1 Y5H       0.0892
     35 H4         -8.4893   13.0468   20.1885 H           1 Y5H       0.1004
     36 H5         -8.9620   12.8373   22.8072 H           1 Y5H       0.2053
     37 H6         -8.3890   10.7424   23.3169 H           1 Y5H       0.0882
     38 H7        -10.5167   10.3915   24.1293 H           1 Y5H       0.0323
     39 H8        -10.9342    9.5707   22.6187 H           1 Y5H       0.0323
     40 H9        -11.5824   12.3413   23.5173 H           1 Y5H       0.0319
     41 H10       -12.3678   11.3911   22.2361 H           1 Y5H       0.0319
     42 H11       -10.7686   12.0469   20.6099 H           1 Y5H       0.0815
     43 H12       -10.7995   13.5223   21.6043 H           1 Y5H       0.0815
     44 H13        -9.5088    9.5346   20.7362 H           1 Y5H       0.0632
     45 H14        -8.3691   10.9431   19.3487 H           1 Y5H       0.0648
     46 H15        -5.5635    7.4061   21.3708 H           1 Y5H       0.0578
     47 H16        -4.5261    8.7862   21.1929 H           1 Y5H       0.0578
     48 H17        -4.4776    6.8855   19.3834 H           1 Y5H       0.0340
     49 H18        -4.3521    8.5394   18.9048 H           1 Y5H       0.0340
     50 H19        -5.8510    8.0391   17.3465 H           1 Y5H       0.0816
     51 H20        -7.0110    8.3588   18.5963 H           1 Y5H       0.0816
     52 H21        -6.4720    4.4907   16.9147 H           1 Y5H       0.0778
     53 H22        -5.0228    5.2626   17.5507 H           1 Y5H       0.0778
     54 H23        -5.8498    5.9534   16.1533 H           1 Y5H       0.0778
     55 H24        -8.8942    7.0717   17.9924 H           1 Y5H       0.0778
     56 H25        -8.6854    5.5650   17.0981 H           1 Y5H       0.0778
     57 H26        -8.0857    7.0895   16.4227 H           1 Y5H       0.0778
     58 H27        -6.1722    5.2626   19.7879 H           1 Y5H       0.0778
     59 H28        -7.6516    4.5916   19.1190 H           1 Y5H       0.0778
     60 H29        -7.7121    6.1103   20.0124 H           1 Y5H       0.0778
@<TRIPOS>BOND
     1     1     2   1
     2     2     3   2
     3     2     5   1
     4     3     4   1
     5     4     6   2
     6     5     6   1
     7     6     7   1
     8     7     8   2
     9     7     9   1
    10     8    11   1
    11     9    10   1
    12    10    11   2
    13    11    12   1
    14    12    13   1
    15    12    19   1
    16    13    14   1
    17    13    17   1
    18    14    15   1
    19    14    18   1
    20    15    16   1
    21    16    17   1
    22    18    19   1
    23    18    22   1
    24    19    20   1
    25    20    21   2
    26    20    24  am
    27    22    23   2
    28    22    24  am
    29    24    25   1
    30    25    26   1
    31    26    27   1
    32    27    28   1
    33    28    29   1
    34    28    30   1
    35    28    31   1
    36     3    32   1
    37     4    33   1
    38    10    34   1
    39    12    35   1
    40    13    36   1
    41    14    37   1
    42    15    38   1
    43    15    39   1
    44    16    40   1
    45    16    41   1
    46    17    42   1
    47    17    43   1
    48    18    44   1
    49    19    45   1
    50    25    46   1
    51    25    47   1
    52    26    48   1
    53    26    49   1
    54    27    50   1
    55    27    51   1
    56    29    52   1
    57    29    53   1
    58    29    54   1
    59    30    55   1
    60    30    56   1
    61    30    57   1
    62    31    58   1
    63    31    59   1
    64    31    60   1
@<TRIPOS>SUBSTRUCTURE
     1  Y5H      1

