@<TRIPOS>MOLECULE
2y5h_ligand_058
    60    64
SMALL
GAST_HUCK
****
This file was generated by PARSER (from files_GN.cpp)

@<TRIPOS>ATOM
      1 CL1       -10.3768   10.8063   23.4821 Cl          1 Y5H      -0.0522
      2 C25        -9.1510   10.4982   22.3566 C.2         1 Y5H       0.0990
      3 C24        -8.9162    9.3021   21.6685 C.2         1 Y5H      -0.0555
      4 C22        -7.8364    9.3570   20.7622 C.2         1 Y5H      -0.0588
      5 S1         -7.9837   11.6402   21.8182 S.3         1 Y5H      -0.0195
      6 C20        -7.1801   10.5960   20.7051 C.2         1 Y5H       0.0881
      7 C17        -6.0998   10.9562   19.8913 C.2         1 Y5H       0.1971
      8 N16        -5.5078   12.1576   19.9461 N.2         1 Y5H      -0.3009
      9 O10        -5.5346   10.1981   18.9237 O.3         1 Y5H      -0.2447
     10 C9         -4.5676   10.9630   18.3733 C.2         1 Y5H       0.0987
     11 C4         -4.5315   12.1897   19.0340 C.2         1 Y5H       0.0610
     12 C1         -3.6691   13.3459   18.6747 C.3         1 Y5H       0.0342
     13 N3         -2.2367   12.9285   18.6081 N.4         1 Y5H       0.2526
     14 C7         -1.5512   13.4246   19.8113 C.3         1 Y5H       0.0038
     15 C14        -0.0431   13.4762   19.4625 C.3         1 Y5H      -0.0022
     16 C15         0.0271   13.2405   17.9416 C.3         1 Y5H      -0.0072
     17 C8         -1.4266   13.4069   17.4609 C.3         1 Y5H      -0.0298
     18 C5         -2.2352   14.7843   20.1038 C.3         1 Y5H       0.1231
     19 C2         -3.6711   14.6292   19.5747 C.3         1 Y5H       0.1287
     20 C6         -4.4273   14.7176   20.8041 C.2         1 Y5H       0.2198
     21 O13        -5.6519   14.7737   20.8117 O.2         1 Y5H      -0.3852
     22 C11        -2.4117   15.0740   21.4990 C.2         1 Y5H       0.2184
     23 O18        -1.4706   15.4157   22.2081 O.2         1 Y5H      -0.3853
     24 N12        -3.6788   14.9729   21.8704 N.am        1 Y5H      -0.1843
     25 C19        -4.1750   15.2674   23.2069 C.3         1 Y5H       0.0635
     26 C21        -3.4450   14.5640   24.4010 C.3         1 Y5H       0.0123
     27 C23        -4.1362   13.3284   25.0642 C.3         1 Y5H      -0.0286
     28 N29        -3.7524   11.9101   24.6583 N.4         1 Y5H       0.2369
     29 C32        -4.3815   10.9557   25.6578 C.3         1 Y5H      -0.0418
     30 C31        -2.2498   11.7081   24.6759 C.3         1 Y5H      -0.0418
     31 C30        -4.2854   11.5684   23.2870 C.3         1 Y5H      -0.0418
     32 H1         -9.4909    8.4606   21.8039 H           1 Y5H       0.0446
     33 H2         -7.5677    8.5453   20.1912 H           1 Y5H       0.0483
     34 H3         -3.9677   10.6781   17.5930 H           1 Y5H       0.0892
     35 H4         -3.9970   13.6422   17.6752 H           1 Y5H       0.1004
     36 H5         -2.1533   11.9103   18.5982 H           1 Y5H       0.2053
     37 H6         -1.7215   12.7062   20.6288 H           1 Y5H       0.0882
     38 H7          0.4998   12.6875   19.9933 H           1 Y5H       0.0323
     39 H8          0.3992   14.4412   19.7288 H           1 Y5H       0.0323
     40 H9          0.3719   12.2211   17.7309 H           1 Y5H       0.0319
     41 H10         0.6978   13.9513   17.4506 H           1 Y5H       0.0319
     42 H11        -1.6235   14.4630   17.2315 H           1 Y5H       0.0815
     43 H12        -1.6267   12.8072   16.5693 H           1 Y5H       0.0815
     44 H13        -1.7331   15.6149   19.5968 H           1 Y5H       0.0632
     45 H14        -3.9324   15.5056   18.9679 H           1 Y5H       0.0648
     46 H15        -5.2496   15.0536   23.2830 H           1 Y5H       0.0578
     47 H16        -4.0677   16.3560   23.3354 H           1 Y5H       0.0578
     48 H17        -3.3614   15.3225   25.1968 H           1 Y5H       0.0340
     49 H18        -2.4213   14.3094   24.1195 H           1 Y5H       0.0340
     50 H19        -5.2210   13.4563   24.9695 H           1 Y5H       0.0816
     51 H20        -3.9234   13.4192   26.1429 H           1 Y5H       0.0816
     52 H21        -4.1483    9.9154   25.4208 H           1 Y5H       0.0778
     53 H22        -5.4762   11.0569   25.6788 H           1 Y5H       0.0778
     54 H23        -4.0110   11.1532   26.6706 H           1 Y5H       0.0778
     55 H24        -1.7735   12.2089   23.8197 H           1 Y5H       0.0778
     56 H25        -1.9910   10.6436   24.6164 H           1 Y5H       0.0778
     57 H26        -1.8096   12.1187   25.5979 H           1 Y5H       0.0778
     58 H27        -5.3749   11.6999   23.2505 H           1 Y5H       0.0778
     59 H28        -4.0655   10.5235   23.0262 H           1 Y5H       0.0778
     60 H29        -3.8419   12.2029   22.5104 H           1 Y5H       0.0778
@<TRIPOS>BOND
     1     1     2   1
     2     2     3   2
     3     2     5   1
     4     3     4   1
     5     4     6   2
     6     5     6   1
     7     6     7   1
     8     7     8   2
     9     7     9   1
    10     8    11   1
    11     9    10   1
    12    10    11   2
    13    11    12   1
    14    12    13   1
    15    12    19   1
    16    13    14   1
    17    13    17   1
    18    14    15   1
    19    14    18   1
    20    15    16   1
    21    16    17   1
    22    18    19   1
    23    18    22   1
    24    19    20   1
    25    20    21   2
    26    20    24  am
    27    22    23   2
    28    22    24  am
    29    24    25   1
    30    25    26   1
    31    26    27   1
    32    27    28   1
    33    28    29   1
    34    28    30   1
    35    28    31   1
    36     3    32   1
    37     4    33   1
    38    10    34   1
    39    12    35   1
    40    13    36   1
    41    14    37   1
    42    15    38   1
    43    15    39   1
    44    16    40   1
    45    16    41   1
    46    17    42   1
    47    17    43   1
    48    18    44   1
    49    19    45   1
    50    25    46   1
    51    25    47   1
    52    26    48   1
    53    26    49   1
    54    27    50   1
    55    27    51   1
    56    29    52   1
    57    29    53   1
    58    29    54   1
    59    30    55   1
    60    30    56   1
    61    30    57   1
    62    31    58   1
    63    31    59   1
    64    31    60   1
@<TRIPOS>SUBSTRUCTURE
     1  Y5H      1

