@<TRIPOS>MOLECULE
2y5h_ligand_036
    60    64
SMALL
GAST_HUCK
****
This file was generated by PARSER (from files_GN.cpp)

@<TRIPOS>ATOM
      1 CL1       -13.2365    9.2659   21.3182 Cl          1 Y5H      -0.0522
      2 C25       -11.8419    9.9484   21.9806 C.2         1 Y5H       0.0990
      3 C24       -11.5606   10.1086   23.3397 C.2         1 Y5H      -0.0555
      4 C22       -10.3311   10.7352   23.6049 C.2         1 Y5H      -0.0588
      5 S1        -10.5162   10.5948   21.0996 S.3         1 Y5H      -0.0195
      6 C20        -9.5884   11.0789   22.4661 C.2         1 Y5H       0.0881
      7 C17        -8.3410   11.7178   22.4378 C.2         1 Y5H       0.1971
      8 N16        -7.6723   12.0669   21.3234 N.2         1 Y5H      -0.3009
      9 O10        -7.6491   12.1014   23.5367 O.3         1 Y5H      -0.2447
     10 C9         -6.5260   12.7033   23.0925 C.2         1 Y5H       0.0987
     11 C4         -6.5401   12.6829   21.7023 C.2         1 Y5H       0.0610
     12 C1         -5.5198   13.2636   20.7934 C.3         1 Y5H       0.0342
     13 N3         -6.1195   13.7878   19.5333 N.4         1 Y5H       0.2526
     14 C7         -5.0376   13.8531   18.5322 C.3         1 Y5H       0.0038
     15 C14        -4.5328   15.3119   18.5949 C.3         1 Y5H      -0.0022
     16 C15        -5.8120   16.1193   18.8671 C.3         1 Y5H      -0.0072
     17 C8         -6.7534   15.1338   19.5939 C.3         1 Y5H      -0.0298
     18 C5         -4.0069   12.7564   18.9173 C.3         1 Y5H       0.1231
     19 C2         -4.3777   12.3079   20.3448 C.3         1 Y5H       0.1287
     20 C6         -4.6800   10.9086   20.1489 C.2         1 Y5H       0.2198
     21 O13        -4.9515   10.1686   21.0862 O.2         1 Y5H      -0.3852
     22 C11        -4.1228   11.5295   18.1658 C.2         1 Y5H       0.2184
     23 O18        -3.8479   11.4755   16.9725 O.2         1 Y5H      -0.3853
     24 N12        -4.5045   10.5036   18.9031 N.am        1 Y5H      -0.1843
     25 C19        -4.6495    9.1325   18.4576 C.3         1 Y5H       0.0635
     26 C21        -6.1293    8.6306   18.4568 C.3         1 Y5H       0.0123
     27 C23        -6.3627    7.1732   18.9981 C.3         1 Y5H      -0.0286
     28 N29        -6.9492    6.1171   18.0727 N.4         1 Y5H       0.2369
     29 C32        -6.0189    5.8327   16.9208 C.3         1 Y5H      -0.0418
     30 C31        -8.3007    6.5394   17.5472 C.3         1 Y5H      -0.0418
     31 C30        -7.1294    4.8347   18.8575 C.3         1 Y5H      -0.0418
     32 H1        -12.1962    9.8043   24.0788 H           1 Y5H       0.0446
     33 H2        -10.0147   10.9288   24.5557 H           1 Y5H       0.0483
     34 H3         -5.8033   13.1118   23.6863 H           1 Y5H       0.0892
     35 H4         -5.0408   14.0944   21.3270 H           1 Y5H       0.1004
     36 H5         -6.8126   13.1119   19.2035 H           1 Y5H       0.2053
     37 H6         -5.4578   13.6719   17.5357 H           1 Y5H       0.0882
     38 H7         -4.0532   15.6160   17.6609 H           1 Y5H       0.0323
     39 H8         -3.8282   15.4488   19.4205 H           1 Y5H       0.0323
     40 H9         -6.2591   16.4419   17.9217 H           1 Y5H       0.0319
     41 H10        -5.6013   17.0029   19.4760 H           1 Y5H       0.0319
     42 H11        -6.9343   15.4629   20.6217 H           1 Y5H       0.0815
     43 H12        -7.7185   15.0939   19.0828 H           1 Y5H       0.0815
     44 H13        -2.9766   13.1244   18.8643 H           1 Y5H       0.0632
     45 H14        -3.5178   12.3943   21.0177 H           1 Y5H       0.0648
     46 H15        -4.0161    8.5154   19.0996 H           1 Y5H       0.0578
     47 H16        -4.2544    9.0052   17.4464 H           1 Y5H       0.0578
     48 H17        -6.5036    8.7266   17.4388 H           1 Y5H       0.0340
     49 H18        -6.7425    9.3132   19.0532 H           1 Y5H       0.0340
     50 H19        -7.0195    7.2689   19.8713 H           1 Y5H       0.0816
     51 H20        -5.4223    6.7888   19.4046 H           1 Y5H       0.0816
     52 H21        -6.4343    5.0651   16.2617 H           1 Y5H       0.0778
     53 H22        -5.0458    5.4756   17.2717 H           1 Y5H       0.0778
     54 H23        -5.8417    6.7198   16.3097 H           1 Y5H       0.0778
     55 H24        -8.9615    6.8507   18.3603 H           1 Y5H       0.0778
     56 H25        -8.7938    5.7233   17.0121 H           1 Y5H       0.0778
     57 H26        -8.2298    7.3714   16.8454 H           1 Y5H       0.0778
     58 H27        -6.1816    4.4891   19.2791 H           1 Y5H       0.0778
     59 H28        -7.5174    4.0257   18.2314 H           1 Y5H       0.0778
     60 H29        -7.8287    4.9687   19.6875 H           1 Y5H       0.0778
@<TRIPOS>BOND
     1     1     2   1
     2     2     3   2
     3     2     5   1
     4     3     4   1
     5     4     6   2
     6     5     6   1
     7     6     7   1
     8     7     8   2
     9     7     9   1
    10     8    11   1
    11     9    10   1
    12    10    11   2
    13    11    12   1
    14    12    13   1
    15    12    19   1
    16    13    14   1
    17    13    17   1
    18    14    15   1
    19    14    18   1
    20    15    16   1
    21    16    17   1
    22    18    19   1
    23    18    22   1
    24    19    20   1
    25    20    21   2
    26    20    24  am
    27    22    23   2
    28    22    24  am
    29    24    25   1
    30    25    26   1
    31    26    27   1
    32    27    28   1
    33    28    29   1
    34    28    30   1
    35    28    31   1
    36     3    32   1
    37     4    33   1
    38    10    34   1
    39    12    35   1
    40    13    36   1
    41    14    37   1
    42    15    38   1
    43    15    39   1
    44    16    40   1
    45    16    41   1
    46    17    42   1
    47    17    43   1
    48    18    44   1
    49    19    45   1
    50    25    46   1
    51    25    47   1
    52    26    48   1
    53    26    49   1
    54    27    50   1
    55    27    51   1
    56    29    52   1
    57    29    53   1
    58    29    54   1
    59    30    55   1
    60    30    56   1
    61    30    57   1
    62    31    58   1
    63    31    59   1
    64    31    60   1
@<TRIPOS>SUBSTRUCTURE
     1  Y5H      1

