@<TRIPOS>MOLECULE
2yfe_ligand_033
    48    49
SMALL
GAST_HUCK
****
This file was generated by PARSER (from files_GN.cpp)

@<TRIPOS>ATOM
      1 CAB        15.4462   16.9420   45.0641 C.3         1 YFE      -0.0403
      2 CAR        16.8040   16.9016   44.5299 C.2         1 YFE      -0.0856
      3 CAC        16.9566   16.5236   43.1215 C.3         1 YFE      -0.0403
      4 CAG        17.8879   17.2090   45.2860 C.2         1 YFE      -0.1025
      5 CAN        17.9223   17.6268   46.6891 C.3         1 YFE      -0.0201
      6 CAX        18.6533   18.9187   46.8856 C.ar        1 YFE       0.0155
      7 CAW        18.1860   20.0957   46.2580 C.ar        1 YFE       0.0822
      8 CAM        18.7940   21.3354   46.5229 C.ar        1 YFE      -0.0446
      9 OAQ        17.1253   20.0555   45.3858 O.3         1 YFE      -0.3273
     10 CAA        17.5542   19.9309   44.0122 C.3         1 YFE       0.0581
     11 CAU        19.8126   19.0155   47.7027 C.ar        1 YFE       0.0914
     12 OAF        20.3228   17.8781   48.2439 O.3         1 YFE      -0.3377
     13 CAY        20.4953   20.2512   47.8924 C.ar        1 YFE       0.0231
     14 CAS        21.7309   20.2591   48.5940 C.2         1 YFE       0.0456
     15 OAE        22.7708   21.0168   48.1780 O.co2       1 YFE      -0.5694
     16 OAD        21.9985   19.3801   49.5797 O.co2       1 YFE      -0.5694
     17 CAV        19.9538   21.4451   47.3266 C.ar        1 YFE      -0.0494
     18 CAP        20.5796   22.8042   47.4881 C.3         1 YFE      -0.0147
     19 CAO        19.6449   24.0476   47.5919 C.3         1 YFE      -0.0100
     20 CAT        18.7922   24.0638   48.8092 C.ar        1 YFE      -0.0411
     21 CAK        17.3808   24.1733   48.7127 C.ar        1 YFE      -0.0602
     22 CAI        16.5800   24.2504   49.8675 C.ar        1 YFE      -0.0686
     23 CAH        17.1803   24.2260   51.1375 C.ar        1 YFE      -0.0687
     24 CAJ        18.5770   24.0963   51.2515 C.ar        1 YFE      -0.0686
     25 CAL        19.3754   24.0081   50.0948 C.ar        1 YFE      -0.0602
     26 H1         14.6943   16.6433   44.3268 H           1 YFE       0.0377
     27 H2         15.2019   17.9543   45.3905 H           1 YFE       0.0377
     28 H3         15.3631   16.2603   45.9141 H           1 YFE       0.0377
     29 H4         17.9961   16.5192   42.7789 H           1 YFE       0.0377
     30 H5         16.4059   17.2293   42.4894 H           1 YFE       0.0377
     31 H6         16.5484   15.5234   42.9540 H           1 YFE       0.0377
     32 H7         18.7808   17.0982   44.8639 H           1 YFE       0.0254
     33 H8         18.3910   16.8118   47.2483 H           1 YFE       0.0443
     34 H9         16.9258   17.7422   47.1199 H           1 YFE       0.0443
     35 H10        18.4001   22.1617   46.0694 H           1 YFE       0.0383
     36 H11        16.6775   19.7507   43.3922 H           1 YFE       0.0576
     37 H12        18.2433   19.0900   43.8708 H           1 YFE       0.0576
     38 H13        18.0320   20.8520   43.6711 H           1 YFE       0.0576
     39 H14        19.9328   17.8389   49.1453 H           1 YFE       0.2469
     40 H15        21.2434   22.9658   46.6298 H           1 YFE       0.0441
     41 H16        21.2033   22.8435   48.3822 H           1 YFE       0.0441
     42 H17        19.0376   24.1109   46.6831 H           1 YFE       0.0448
     43 H18        20.2632   24.9545   47.5986 H           1 YFE       0.0448
     44 H19        16.9251   24.2058   47.7964 H           1 YFE       0.0557
     45 H20        15.5656   24.3418   49.7823 H           1 YFE       0.0599
     46 H21        16.6009   24.3131   51.9768 H           1 YFE       0.0559
     47 H22        19.0151   24.0824   52.1786 H           1 YFE       0.0599
     48 H23        20.3908   23.9309   50.1972 H           1 YFE       0.0557
@<TRIPOS>BOND
     1     1     2   1
     2     2     3   1
     3     2     4   2
     4     4     5   1
     5     5     6   1
     6     6     7  ar
     7     6    11  ar
     8     7     8  ar
     9     7     9   1
    10     8    17  ar
    11     9    10   1
    12    11    12   1
    13    11    13  ar
    14    13    14   1
    15    13    17  ar
    16    14    15  ar
    17    14    16  ar
    18    17    18   1
    19    18    19   1
    20    19    20   1
    21    20    21  ar
    22    20    25  ar
    23    21    22  ar
    24    22    23  ar
    25    23    24  ar
    26    24    25  ar
    27     1    26   1
    28     1    27   1
    29     1    28   1
    30     3    29   1
    31     3    30   1
    32     3    31   1
    33     4    32   1
    34     5    33   1
    35     5    34   1
    36     8    35   1
    37    10    36   1
    38    10    37   1
    39    10    38   1
    40    12    39   1
    41    18    40   1
    42    18    41   1
    43    19    42   1
    44    19    43   1
    45    21    44   1
    46    22    45   1
    47    23    46   1
    48    24    47   1
    49    25    48   1
@<TRIPOS>SUBSTRUCTURE
     1  YFE      1

