@<TRIPOS>MOLECULE
2yfe_ligand_014
    48    49
SMALL
GAST_HUCK
****
This file was generated by PARSER (from files_GN.cpp)

@<TRIPOS>ATOM
      1 CAB        18.5804   18.3205   43.1129 C.3         1 YFE      -0.0403
      2 CAR        19.5169   17.3964   42.4791 C.2         1 YFE      -0.0856
      3 CAC        19.9203   17.6878   41.1090 C.3         1 YFE      -0.0403
      4 CAG        20.0010   16.2980   43.1143 C.2         1 YFE      -0.1025
      5 CAN        19.6743   15.8691   44.4664 C.3         1 YFE      -0.0201
      6 CAX        20.3167   16.7100   45.5387 C.ar        1 YFE       0.0155
      7 CAW        21.7221   16.6928   45.6958 C.ar        1 YFE       0.0822
      8 CAM        22.3287   17.5534   46.6329 C.ar        1 YFE      -0.0446
      9 OAQ        22.5369   15.9348   44.8861 O.3         1 YFE      -0.3273
     10 CAA        22.8099   14.6087   45.3776 C.3         1 YFE       0.0581
     11 CAU        19.5519   17.5409   46.4052 C.ar        1 YFE       0.0914
     12 OAF        18.2017   17.4865   46.2664 O.3         1 YFE      -0.3377
     13 CAY        20.1471   18.4392   47.3460 C.ar        1 YFE       0.0231
     14 CAS        19.2915   19.3112   48.1215 C.2         1 YFE       0.0456
     15 OAE        17.9458   19.1658   48.1810 O.co2       1 YFE      -0.5694
     16 OAD        19.7267   20.3791   48.8298 O.co2       1 YFE      -0.5694
     17 CAV        21.5792   18.4316   47.4519 C.ar        1 YFE      -0.0494
     18 CAP        22.3541   19.2937   48.4053 C.3         1 YFE      -0.0147
     19 CAO        22.5451   20.7728   47.9183 C.3         1 YFE      -0.0100
     20 CAT        23.8665   21.2744   47.4196 C.ar        1 YFE      -0.0411
     21 CAK        24.9881   20.4514   47.1355 C.ar        1 YFE      -0.0602
     22 CAI        26.2118   21.0077   46.7213 C.ar        1 YFE      -0.0686
     23 CAH        26.3381   22.3981   46.5564 C.ar        1 YFE      -0.0687
     24 CAJ        25.2351   23.2306   46.7994 C.ar        1 YFE      -0.0686
     25 CAL        24.0129   22.6719   47.2211 C.ar        1 YFE      -0.0602
     26 H1         18.2670   19.1242   42.4423 H           1 YFE       0.0377
     27 H2         19.0452   18.7898   43.9783 H           1 YFE       0.0377
     28 H3         17.6803   17.7911   43.4297 H           1 YFE       0.0377
     29 H4         20.5779   16.9307   40.6756 H           1 YFE       0.0377
     30 H5         20.4504   18.6425   41.0894 H           1 YFE       0.0377
     31 H6         19.0366   17.7600   40.4698 H           1 YFE       0.0377
     32 H7         20.6113   15.7008   42.6049 H           1 YFE       0.0254
     33 H8         19.9893   14.8298   44.5973 H           1 YFE       0.0443
     34 H9         18.5869   15.8432   44.5444 H           1 YFE       0.0443
     35 H10        23.3511   17.5420   46.6893 H           1 YFE       0.0383
     36 H11        23.4460   14.1034   44.6507 H           1 YFE       0.0576
     37 H12        21.8990   14.0170   45.4976 H           1 YFE       0.0576
     38 H13        23.3453   14.6454   46.3278 H           1 YFE       0.0576
     39 H14        17.8759   17.1017   47.1049 H           1 YFE       0.2469
     40 H15        23.3240   18.8518   48.6460 H           1 YFE       0.0441
     41 H16        21.8347   19.2821   49.3647 H           1 YFE       0.0441
     42 H17        22.2867   21.4062   48.7706 H           1 YFE       0.0448
     43 H18        21.8105   20.9998   47.1412 H           1 YFE       0.0448
     44 H19        24.9323   19.4373   47.2159 H           1 YFE       0.0557
     45 H20        27.0120   20.3991   46.5321 H           1 YFE       0.0599
     46 H21        27.2276   22.8003   46.2554 H           1 YFE       0.0559
     47 H22        25.3207   24.2420   46.6783 H           1 YFE       0.0599
     48 H23        23.2258   23.3036   47.3963 H           1 YFE       0.0557
@<TRIPOS>BOND
     1     1     2   1
     2     2     3   1
     3     2     4   2
     4     4     5   1
     5     5     6   1
     6     6     7  ar
     7     6    11  ar
     8     7     8  ar
     9     7     9   1
    10     8    17  ar
    11     9    10   1
    12    11    12   1
    13    11    13  ar
    14    13    14   1
    15    13    17  ar
    16    14    15  ar
    17    14    16  ar
    18    17    18   1
    19    18    19   1
    20    19    20   1
    21    20    21  ar
    22    20    25  ar
    23    21    22  ar
    24    22    23  ar
    25    23    24  ar
    26    24    25  ar
    27     1    26   1
    28     1    27   1
    29     1    28   1
    30     3    29   1
    31     3    30   1
    32     3    31   1
    33     4    32   1
    34     5    33   1
    35     5    34   1
    36     8    35   1
    37    10    36   1
    38    10    37   1
    39    10    38   1
    40    12    39   1
    41    18    40   1
    42    18    41   1
    43    19    42   1
    44    19    43   1
    45    21    44   1
    46    22    45   1
    47    23    46   1
    48    24    47   1
    49    25    48   1
@<TRIPOS>SUBSTRUCTURE
     1  YFE      1

