@<TRIPOS>MOLECULE
2yfe_ligand_007
    48    49
SMALL
GAST_HUCK
****
This file was generated by PARSER (from files_GN.cpp)

@<TRIPOS>ATOM
      1 CAB        15.2588   17.2181   44.7979 C.3         1 YFE      -0.0403
      2 CAR        16.4238   17.6509   44.0294 C.2         1 YFE      -0.0856
      3 CAC        16.3386   17.5798   42.5696 C.3         1 YFE      -0.0403
      4 CAG        17.5652   18.0656   44.6292 C.2         1 YFE      -0.1025
      5 CAN        17.8738   17.9230   46.0568 C.3         1 YFE      -0.0201
      6 CAX        19.3250   17.7654   46.4024 C.ar        1 YFE       0.0155
      7 CAW        20.1492   16.9405   45.5917 C.ar        1 YFE       0.0822
      8 CAM        21.5260   16.8259   45.8803 C.ar        1 YFE      -0.0446
      9 OAQ        19.6345   16.3748   44.4458 O.3         1 YFE      -0.3273
     10 CAA        20.1557   15.0881   44.0537 C.3         1 YFE       0.0581
     11 CAU        19.8851   18.3368   47.5812 C.ar        1 YFE       0.0914
     12 OAF        19.0858   19.0428   48.4182 O.3         1 YFE      -0.3377
     13 CAY        21.2626   18.1732   47.8924 C.ar        1 YFE       0.0231
     14 CAS        21.7621   18.7798   49.0582 C.2         1 YFE       0.0456
     15 OAE        22.2616   18.0175   50.0558 O.co2       1 YFE      -0.5694
     16 OAD        22.1320   20.0846   48.9995 O.co2       1 YFE      -0.5694
     17 CAV        22.1099   17.4413   47.0153 C.ar        1 YFE      -0.0494
     18 CAP        23.5968   17.3555   47.1423 C.3         1 YFE      -0.0147
     19 CAO        24.2108   15.9412   46.8480 C.3         1 YFE      -0.0100
     20 CAT        25.3950   15.9827   45.9411 C.ar        1 YFE      -0.0411
     21 CAK        26.3039   17.0702   45.9979 C.ar        1 YFE      -0.0602
     22 CAI        27.3978   17.1399   45.1259 C.ar        1 YFE      -0.0686
     23 CAH        27.6373   16.0992   44.2091 C.ar        1 YFE      -0.0687
     24 CAJ        26.7595   14.9979   44.1525 C.ar        1 YFE      -0.0686
     25 CAL        25.6393   14.9454   45.0006 C.ar        1 YFE      -0.0602
     26 H1         14.4181   16.9410   44.1563 H           1 YFE       0.0377
     27 H2         14.9239   18.0282   45.4513 H           1 YFE       0.0377
     28 H3         15.5026   16.3475   45.4108 H           1 YFE       0.0377
     29 H4         17.2549   17.8979   42.0624 H           1 YFE       0.0377
     30 H5         15.5218   18.2083   42.2075 H           1 YFE       0.0377
     31 H6         16.1394   16.5461   42.2679 H           1 YFE       0.0377
     32 H7         18.2914   18.4179   44.0437 H           1 YFE       0.0254
     33 H8         17.3905   17.0222   46.4343 H           1 YFE       0.0443
     34 H9         17.4330   18.7765   46.5685 H           1 YFE       0.0443
     35 H10        22.1229   16.2822   45.2540 H           1 YFE       0.0383
     36 H11        19.4570   14.6630   43.3343 H           1 YFE       0.0576
     37 H12        20.2505   14.4075   44.9089 H           1 YFE       0.0576
     38 H13        21.1270   15.1965   43.5599 H           1 YFE       0.0576
     39 H14        19.0636   18.5401   49.2631 H           1 YFE       0.2469
     40 H15        23.9391   17.6706   48.1399 H           1 YFE       0.0441
     41 H16        23.9942   18.1138   46.4510 H           1 YFE       0.0441
     42 H17        23.4425   15.2808   46.4157 H           1 YFE       0.0448
     43 H18        24.5259   15.4821   47.7933 H           1 YFE       0.0448
     44 H19        26.1622   17.8270   46.6751 H           1 YFE       0.0557
     45 H20        28.0214   17.9468   45.1665 H           1 YFE       0.0599
     46 H21        28.4380   16.1492   43.5780 H           1 YFE       0.0559
     47 H22        26.9320   14.2473   43.4774 H           1 YFE       0.0599
     48 H23        25.0069   14.1435   44.9390 H           1 YFE       0.0557
@<TRIPOS>BOND
     1     1     2   1
     2     2     3   1
     3     2     4   2
     4     4     5   1
     5     5     6   1
     6     6     7  ar
     7     6    11  ar
     8     7     8  ar
     9     7     9   1
    10     8    17  ar
    11     9    10   1
    12    11    12   1
    13    11    13  ar
    14    13    14   1
    15    13    17  ar
    16    14    15  ar
    17    14    16  ar
    18    17    18   1
    19    18    19   1
    20    19    20   1
    21    20    21  ar
    22    20    25  ar
    23    21    22  ar
    24    22    23  ar
    25    23    24  ar
    26    24    25  ar
    27     1    26   1
    28     1    27   1
    29     1    28   1
    30     3    29   1
    31     3    30   1
    32     3    31   1
    33     4    32   1
    34     5    33   1
    35     5    34   1
    36     8    35   1
    37    10    36   1
    38    10    37   1
    39    10    38   1
    40    12    39   1
    41    18    40   1
    42    18    41   1
    43    19    42   1
    44    19    43   1
    45    21    44   1
    46    22    45   1
    47    23    46   1
    48    24    47   1
    49    25    48   1
@<TRIPOS>SUBSTRUCTURE
     1  YFE      1

