@<TRIPOS>MOLECULE
2yfe_ligand_022
    48    49
SMALL
GAST_HUCK
****
This file was generated by PARSER (from files_GN.cpp)

@<TRIPOS>ATOM
      1 CAB        25.6245   13.5302   44.9466 C.3         1 YFE      -0.0403
      2 CAR        24.9968   14.3730   43.9254 C.2         1 YFE      -0.0856
      3 CAC        25.8618   14.9087   42.8756 C.3         1 YFE      -0.0403
      4 CAG        23.6771   14.6763   43.9318 C.2         1 YFE      -0.1025
      5 CAN        22.7023   14.4285   44.9850 C.3         1 YFE      -0.0201
      6 CAX        22.1958   15.7143   45.5767 C.ar        1 YFE       0.0155
      7 CAW        20.8355   16.0961   45.4699 C.ar        1 YFE       0.0822
      8 CAM        20.3809   17.2928   46.0606 C.ar        1 YFE      -0.0446
      9 OAQ        19.9011   15.2617   44.9119 O.3         1 YFE      -0.3273
     10 CAA        19.8252   15.3278   43.4783 C.3         1 YFE       0.0581
     11 CAU        23.0636   16.5494   46.3295 C.ar        1 YFE       0.0914
     12 OAF        24.3617   16.1655   46.4833 O.3         1 YFE      -0.3377
     13 CAY        22.5808   17.6972   47.0194 C.ar        1 YFE       0.0231
     14 CAS        23.4404   18.3256   47.9590 C.2         1 YFE       0.0456
     15 OAE        22.9414   18.9447   49.0536 O.co2       1 YFE      -0.5694
     16 OAD        24.7776   18.3996   47.7528 O.co2       1 YFE      -0.5694
     17 CAV        21.2313   18.1291   46.8284 C.ar        1 YFE      -0.0494
     18 CAP        20.6137   19.3561   47.4560 C.3         1 YFE      -0.0147
     19 CAO        21.5130   20.6199   47.6915 C.3         1 YFE      -0.0100
     20 CAT        21.0059   21.9405   47.2222 C.ar        1 YFE      -0.0411
     21 CAK        19.6890   22.3681   47.5174 C.ar        1 YFE      -0.0602
     22 CAI        19.2294   23.6249   47.0796 C.ar        1 YFE      -0.0686
     23 CAH        20.0975   24.4861   46.3807 C.ar        1 YFE      -0.0687
     24 CAJ        21.4205   24.0955   46.1174 C.ar        1 YFE      -0.0686
     25 CAL        21.8706   22.8356   46.5424 C.ar        1 YFE      -0.0602
     26 H1         26.6922   13.3854   44.7624 H           1 YFE       0.0377
     27 H2         25.1538   12.5453   44.9520 H           1 YFE       0.0377
     28 H3         25.5212   13.9816   45.9322 H           1 YFE       0.0377
     29 H4         25.3293   15.5176   42.1362 H           1 YFE       0.0377
     30 H5         26.3463   14.0871   42.3443 H           1 YFE       0.0377
     31 H6         26.6330   15.5400   43.3251 H           1 YFE       0.0377
     32 H7         23.3146   15.1625   43.1383 H           1 YFE       0.0254
     33 H8         23.0999   13.8107   45.7934 H           1 YFE       0.0443
     34 H9         21.8982   13.8428   44.5366 H           1 YFE       0.0443
     35 H10        19.3918   17.5198   45.9563 H           1 YFE       0.0383
     36 H11        19.0370   14.6483   43.1552 H           1 YFE       0.0576
     37 H12        20.7625   15.0086   43.0187 H           1 YFE       0.0576
     38 H13        19.5778   16.3369   43.1396 H           1 YFE       0.0576
     39 H14        24.8800   16.9170   46.1186 H           1 YFE       0.2469
     40 H15        20.2096   19.0420   48.4203 H           1 YFE       0.0441
     41 H16        19.7439   19.6604   46.8699 H           1 YFE       0.0441
     42 H17        22.4941   20.4426   47.2522 H           1 YFE       0.0448
     43 H18        21.6632   20.7270   48.7642 H           1 YFE       0.0448
     44 H19        19.0515   21.7608   48.0467 H           1 YFE       0.0557
     45 H20        18.2653   23.9181   47.2725 H           1 YFE       0.0599
     46 H21        19.7665   25.4047   46.0763 H           1 YFE       0.0559
     47 H22        22.0574   24.7234   45.6285 H           1 YFE       0.0599
     48 H23        22.8434   22.5780   46.3584 H           1 YFE       0.0557
@<TRIPOS>BOND
     1     1     2   1
     2     2     3   1
     3     2     4   2
     4     4     5   1
     5     5     6   1
     6     6     7  ar
     7     6    11  ar
     8     7     8  ar
     9     7     9   1
    10     8    17  ar
    11     9    10   1
    12    11    12   1
    13    11    13  ar
    14    13    14   1
    15    13    17  ar
    16    14    15  ar
    17    14    16  ar
    18    17    18   1
    19    18    19   1
    20    19    20   1
    21    20    21  ar
    22    20    25  ar
    23    21    22  ar
    24    22    23  ar
    25    23    24  ar
    26    24    25  ar
    27     1    26   1
    28     1    27   1
    29     1    28   1
    30     3    29   1
    31     3    30   1
    32     3    31   1
    33     4    32   1
    34     5    33   1
    35     5    34   1
    36     8    35   1
    37    10    36   1
    38    10    37   1
    39    10    38   1
    40    12    39   1
    41    18    40   1
    42    18    41   1
    43    19    42   1
    44    19    43   1
    45    21    44   1
    46    22    45   1
    47    23    46   1
    48    24    47   1
    49    25    48   1
@<TRIPOS>SUBSTRUCTURE
     1  YFE      1

