@<TRIPOS>MOLECULE
2yfe_ligand_020
    48    49
SMALL
GAST_HUCK
****
This file was generated by PARSER (from files_GN.cpp)

@<TRIPOS>ATOM
      1 CAB        14.3341   22.0594   47.8148 C.3         1 YFE      -0.0403
      2 CAR        15.1051   22.2492   49.0396 C.2         1 YFE      -0.0856
      3 CAC        14.5221   23.1094   50.0682 C.3         1 YFE      -0.0403
      4 CAG        16.3178   21.6796   49.2208 C.2         1 YFE      -0.1025
      5 CAN        17.0293   20.8274   48.2720 C.3         1 YFE      -0.0201
      6 CAX        18.4927   21.1252   48.1723 C.ar        1 YFE       0.0155
      7 CAW        18.9309   22.4469   47.9054 C.ar        1 YFE       0.0822
      8 CAM        20.2923   22.7026   47.6583 C.ar        1 YFE      -0.0446
      9 OAQ        18.0214   23.4666   47.7357 O.3         1 YFE      -0.3273
     10 CAA        18.0410   24.4749   48.7634 C.3         1 YFE       0.0581
     11 CAU        19.4679   20.0933   48.2391 C.ar        1 YFE       0.0914
     12 OAF        19.0476   18.8205   48.4811 O.3         1 YFE      -0.3377
     13 CAY        20.8490   20.3556   48.0145 C.ar        1 YFE       0.0231
     14 CAS        21.7706   19.2871   48.0841 C.2         1 YFE       0.0456
     15 OAE        22.7967   19.3165   48.9646 O.co2       1 YFE      -0.5694
     16 OAD        21.5803   18.1429   47.3848 O.co2       1 YFE      -0.5694
     17 CAV        21.2695   21.6796   47.6956 C.ar        1 YFE      -0.0494
     18 CAP        22.6488   22.0567   47.2409 C.3         1 YFE      -0.0147
     19 CAO        23.3722   23.0857   48.1694 C.3         1 YFE      -0.0100
     20 CAT        24.3450   23.9260   47.4175 C.ar        1 YFE      -0.0411
     21 CAK        25.3790   23.3280   46.6578 C.ar        1 YFE      -0.0602
     22 CAI        26.2778   24.1258   45.9195 C.ar        1 YFE      -0.0686
     23 CAH        26.1420   25.5243   45.9158 C.ar        1 YFE      -0.0687
     24 CAJ        25.1058   26.1292   46.6530 C.ar        1 YFE      -0.0686
     25 CAL        24.2150   25.3345   47.3977 C.ar        1 YFE      -0.0602
     26 H1         13.3451   22.5166   47.8680 H           1 YFE       0.0377
     27 H2         14.1925   20.9942   47.6230 H           1 YFE       0.0377
     28 H3         14.8615   22.5089   46.9718 H           1 YFE       0.0377
     29 H4         15.1507   23.2229   50.9553 H           1 YFE       0.0377
     30 H5         13.5650   22.6907   50.3881 H           1 YFE       0.0377
     31 H6         14.3414   24.1080   49.6580 H           1 YFE       0.0377
     32 H7         16.7678   21.8102   50.1038 H           1 YFE       0.0254
     33 H8         16.6248   20.9139   47.2618 H           1 YFE       0.0443
     34 H9         16.8430   19.8015   48.5875 H           1 YFE       0.0443
     35 H10        20.5665   23.6533   47.4004 H           1 YFE       0.0383
     36 H11        17.2474   25.1906   48.5475 H           1 YFE       0.0576
     37 H12        18.9902   25.0183   48.7778 H           1 YFE       0.0576
     38 H13        17.8563   24.0485   49.7528 H           1 YFE       0.0576
     39 H14        19.4302   18.5498   49.3415 H           1 YFE       0.2469
     40 H15        22.5526   22.4793   46.2314 H           1 YFE       0.0441
     41 H16        23.2985   21.1832   47.1321 H           1 YFE       0.0441
     42 H17        23.9073   22.5522   48.9628 H           1 YFE       0.0448
     43 H18        22.6263   23.7189   48.6643 H           1 YFE       0.0448
     44 H19        25.4931   22.3118   46.6435 H           1 YFE       0.0557
     45 H20        27.0254   23.6826   45.3724 H           1 YFE       0.0599
     46 H21        26.7905   26.1004   45.3765 H           1 YFE       0.0559
     47 H22        25.0041   27.1448   46.6462 H           1 YFE       0.0599
     48 H23        23.4603   25.7933   47.9123 H           1 YFE       0.0557
@<TRIPOS>BOND
     1     1     2   1
     2     2     3   1
     3     2     4   2
     4     4     5   1
     5     5     6   1
     6     6     7  ar
     7     6    11  ar
     8     7     8  ar
     9     7     9   1
    10     8    17  ar
    11     9    10   1
    12    11    12   1
    13    11    13  ar
    14    13    14   1
    15    13    17  ar
    16    14    15  ar
    17    14    16  ar
    18    17    18   1
    19    18    19   1
    20    19    20   1
    21    20    21  ar
    22    20    25  ar
    23    21    22  ar
    24    22    23  ar
    25    23    24  ar
    26    24    25  ar
    27     1    26   1
    28     1    27   1
    29     1    28   1
    30     3    29   1
    31     3    30   1
    32     3    31   1
    33     4    32   1
    34     5    33   1
    35     5    34   1
    36     8    35   1
    37    10    36   1
    38    10    37   1
    39    10    38   1
    40    12    39   1
    41    18    40   1
    42    18    41   1
    43    19    42   1
    44    19    43   1
    45    21    44   1
    46    22    45   1
    47    23    46   1
    48    24    47   1
    49    25    48   1
@<TRIPOS>SUBSTRUCTURE
     1  YFE      1

