@<TRIPOS>MOLECULE
2yfe_ligand_030
    48    49
SMALL
GAST_HUCK
****
This file was generated by PARSER (from files_GN.cpp)

@<TRIPOS>ATOM
      1 CAB        20.5365   24.6473   49.5707 C.3         1 YFE      -0.0403
      2 CAR        20.0179   24.9064   48.2281 C.2         1 YFE      -0.0856
      3 CAC        19.4255   26.2165   47.9599 C.3         1 YFE      -0.0403
      4 CAG        20.0561   23.9682   47.2585 C.2         1 YFE      -0.1025
      5 CAN        20.6387   22.6339   47.3370 C.3         1 YFE      -0.0201
      6 CAX        22.1228   22.5177   47.1319 C.ar        1 YFE       0.0155
      7 CAW        22.8770   21.5293   47.8263 C.ar        1 YFE       0.0822
      8 CAM        24.2622   21.3907   47.6101 C.ar        1 YFE      -0.0446
      9 OAQ        22.3138   20.6619   48.7175 O.3         1 YFE      -0.3273
     10 CAA        21.5245   19.6346   48.0862 C.3         1 YFE       0.0581
     11 CAU        22.8117   23.2992   46.1703 C.ar        1 YFE       0.0914
     12 OAF        22.1102   24.2436   45.4816 O.3         1 YFE      -0.3377
     13 CAY        24.1991   23.1405   45.9226 C.ar        1 YFE       0.0231
     14 CAS        24.8421   24.0182   45.0051 C.2         1 YFE       0.0456
     15 OAE        24.3291   24.2821   43.7816 O.co2       1 YFE      -0.5694
     16 OAD        25.8118   24.8546   45.4480 O.co2       1 YFE      -0.5694
     17 CAV        24.9420   22.1366   46.6219 C.ar        1 YFE      -0.0494
     18 CAP        26.3974   21.8725   46.3265 C.3         1 YFE      -0.0147
     19 CAO        27.1781   20.6661   46.9536 C.3         1 YFE      -0.0100
     20 CAT        26.8187   19.2972   46.4793 C.ar        1 YFE      -0.0411
     21 CAK        27.5991   18.6572   45.4795 C.ar        1 YFE      -0.0602
     22 CAI        27.3582   17.3164   45.1218 C.ar        1 YFE      -0.0686
     23 CAH        26.3306   16.5880   45.7523 C.ar        1 YFE      -0.0687
     24 CAJ        25.5391   17.2121   46.7372 C.ar        1 YFE      -0.0686
     25 CAL        25.8014   18.5367   47.1164 C.ar        1 YFE      -0.0602
     26 H1         20.4423   25.5188   50.2252 H           1 YFE       0.0377
     27 H2         21.5941   24.3809   49.5271 H           1 YFE       0.0377
     28 H3         19.9796   23.8288   50.0315 H           1 YFE       0.0377
     29 H4         19.0728   26.3345   46.9313 H           1 YFE       0.0377
     30 H5         20.1623   27.0017   48.1460 H           1 YFE       0.0377
     31 H6         18.5706   26.3793   48.6205 H           1 YFE       0.0377
     32 H7         19.6409   24.1926   46.3775 H           1 YFE       0.0254
     33 H8         20.1784   22.0060   46.5662 H           1 YFE       0.0443
     34 H9         20.3255   22.1929   48.2898 H           1 YFE       0.0443
     35 H10        24.7613   20.7323   48.1821 H           1 YFE       0.0383
     36 H11        21.1818   18.9421   48.8543 H           1 YFE       0.0576
     37 H12        22.1119   19.0703   47.3558 H           1 YFE       0.0576
     38 H13        20.6483   20.0537   47.5886 H           1 YFE       0.0576
     39 H14        22.2046   25.0587   46.0153 H           1 YFE       0.2469
     40 H15        26.9377   22.7737   46.6363 H           1 YFE       0.0441
     41 H16        26.5222   21.7871   45.2415 H           1 YFE       0.0441
     42 H17        27.1072   20.7126   48.0403 H           1 YFE       0.0448
     43 H18        28.2397   20.8268   46.7418 H           1 YFE       0.0448
     44 H19        28.3749   19.1544   45.0310 H           1 YFE       0.0557
     45 H20        27.9370   16.8618   44.4063 H           1 YFE       0.0599
     46 H21        26.1595   15.6125   45.4961 H           1 YFE       0.0559
     47 H22        24.8025   16.6826   47.2062 H           1 YFE       0.0599
     48 H23        25.2763   18.9057   47.8966 H           1 YFE       0.0557
@<TRIPOS>BOND
     1     1     2   1
     2     2     3   1
     3     2     4   2
     4     4     5   1
     5     5     6   1
     6     6     7  ar
     7     6    11  ar
     8     7     8  ar
     9     7     9   1
    10     8    17  ar
    11     9    10   1
    12    11    12   1
    13    11    13  ar
    14    13    14   1
    15    13    17  ar
    16    14    15  ar
    17    14    16  ar
    18    17    18   1
    19    18    19   1
    20    19    20   1
    21    20    21  ar
    22    20    25  ar
    23    21    22  ar
    24    22    23  ar
    25    23    24  ar
    26    24    25  ar
    27     1    26   1
    28     1    27   1
    29     1    28   1
    30     3    29   1
    31     3    30   1
    32     3    31   1
    33     4    32   1
    34     5    33   1
    35     5    34   1
    36     8    35   1
    37    10    36   1
    38    10    37   1
    39    10    38   1
    40    12    39   1
    41    18    40   1
    42    18    41   1
    43    19    42   1
    44    19    43   1
    45    21    44   1
    46    22    45   1
    47    23    46   1
    48    24    47   1
    49    25    48   1
@<TRIPOS>SUBSTRUCTURE
     1  YFE      1

