@<TRIPOS>MOLECULE
2yfe_ligand_017
    48    49
SMALL
GAST_HUCK
****
This file was generated by PARSER (from files_GN.cpp)

@<TRIPOS>ATOM
      1 CAB        23.1474   26.1850   46.9517 C.3         1 YFE      -0.0403
      2 CAR        23.2096   25.6820   48.3219 C.2         1 YFE      -0.0856
      3 CAC        23.9747   26.4716   49.2877 C.3         1 YFE      -0.0403
      4 CAG        22.6064   24.5275   48.7044 C.2         1 YFE      -0.1025
      5 CAN        21.9137   23.5665   47.8487 C.3         1 YFE      -0.0201
      6 CAX        22.6251   22.2528   47.7417 C.ar        1 YFE       0.0155
      7 CAW        21.9677   21.0350   48.0414 C.ar        1 YFE       0.0822
      8 CAM        22.6399   19.8073   47.8888 C.ar        1 YFE      -0.0446
      9 OAQ        20.6833   21.0080   48.5221 O.3         1 YFE      -0.3273
     10 CAA        19.6855   20.8123   47.5084 C.3         1 YFE       0.0581
     11 CAU        23.9694   22.1801   47.2913 C.ar        1 YFE       0.0914
     12 OAF        24.6087   23.3443   46.9787 O.3         1 YFE      -0.3377
     13 CAY        24.6584   20.9425   47.1626 C.ar        1 YFE       0.0231
     14 CAS        26.0236   20.9904   46.8052 C.2         1 YFE       0.0456
     15 OAE        26.4653   21.8317   45.8412 O.co2       1 YFE      -0.5694
     16 OAD        26.9443   20.3667   47.5737 O.co2       1 YFE      -0.5694
     17 CAV        23.9746   19.7171   47.4200 C.ar        1 YFE      -0.0494
     18 CAP        24.4603   18.3058   47.1836 C.3         1 YFE      -0.0147
     19 CAO        25.8836   17.9741   46.6338 C.3         1 YFE      -0.0100
     20 CAT        26.0905   16.6668   45.9399 C.ar        1 YFE      -0.0411
     21 CAK        25.3558   15.4973   46.2528 C.ar        1 YFE      -0.0602
     22 CAI        25.5113   14.3281   45.4875 C.ar        1 YFE      -0.0686
     23 CAH        26.4054   14.3070   44.3996 C.ar        1 YFE      -0.0687
     24 CAJ        27.1794   15.4424   44.1115 C.ar        1 YFE      -0.0686
     25 CAL        27.0418   16.6031   44.8917 C.ar        1 YFE      -0.0602
     26 H1         23.7107   27.1141   46.8175 H           1 YFE       0.0377
     27 H2         22.1075   26.3873   46.6766 H           1 YFE       0.0377
     28 H3         23.5658   25.4512   46.2586 H           1 YFE       0.0377
     29 H4         23.9371   26.0737   50.3061 H           1 YFE       0.0377
     30 H5         23.5930   27.4985   49.3147 H           1 YFE       0.0377
     31 H6         25.0254   26.4972   48.9773 H           1 YFE       0.0377
     32 H7         22.6606   24.2740   49.6634 H           1 YFE       0.0254
     33 H8         21.7700   23.9327   46.8307 H           1 YFE       0.0443
     34 H9         20.9121   23.4567   48.2692 H           1 YFE       0.0443
     35 H10        22.1206   18.9508   48.1083 H           1 YFE       0.0383
     36 H11        18.7096   20.7936   47.9910 H           1 YFE       0.0576
     37 H12        19.8269   19.8600   46.9912 H           1 YFE       0.0576
     38 H13        19.6932   21.6281   46.7812 H           1 YFE       0.0576
     39 H14        25.2110   23.5110   47.7330 H           1 YFE       0.2469
     40 H15        23.7558   17.8597   46.4729 H           1 YFE       0.0441
     41 H16        24.3531   17.7573   48.1301 H           1 YFE       0.0441
     42 H17        26.6170   18.0254   47.4418 H           1 YFE       0.0448
     43 H18        26.1234   18.7449   45.9011 H           1 YFE       0.0448
     44 H19        24.6971   15.4902   47.0345 H           1 YFE       0.0557
     45 H20        24.9557   13.5005   45.7062 H           1 YFE       0.0599
     46 H21        26.4735   13.4756   43.8080 H           1 YFE       0.0559
     47 H22        27.8262   15.4330   43.3239 H           1 YFE       0.0599
     48 H23        27.6099   17.4211   44.6575 H           1 YFE       0.0557
@<TRIPOS>BOND
     1     1     2   1
     2     2     3   1
     3     2     4   2
     4     4     5   1
     5     5     6   1
     6     6     7  ar
     7     6    11  ar
     8     7     8  ar
     9     7     9   1
    10     8    17  ar
    11     9    10   1
    12    11    12   1
    13    11    13  ar
    14    13    14   1
    15    13    17  ar
    16    14    15  ar
    17    14    16  ar
    18    17    18   1
    19    18    19   1
    20    19    20   1
    21    20    21  ar
    22    20    25  ar
    23    21    22  ar
    24    22    23  ar
    25    23    24  ar
    26    24    25  ar
    27     1    26   1
    28     1    27   1
    29     1    28   1
    30     3    29   1
    31     3    30   1
    32     3    31   1
    33     4    32   1
    34     5    33   1
    35     5    34   1
    36     8    35   1
    37    10    36   1
    38    10    37   1
    39    10    38   1
    40    12    39   1
    41    18    40   1
    42    18    41   1
    43    19    42   1
    44    19    43   1
    45    21    44   1
    46    22    45   1
    47    23    46   1
    48    24    47   1
    49    25    48   1
@<TRIPOS>SUBSTRUCTURE
     1  YFE      1

