@<TRIPOS>MOLECULE
2yfe_ligand_029
    48    49
SMALL
GAST_HUCK
****
This file was generated by PARSER (from files_GN.cpp)

@<TRIPOS>ATOM
      1 CAB        15.6820   17.1327   46.6667 C.3         1 YFE      -0.0403
      2 CAR        16.2071   18.0473   45.6497 C.2         1 YFE      -0.0856
      3 CAC        16.4104   17.4960   44.3084 C.3         1 YFE      -0.0403
      4 CAG        16.4860   19.3452   45.9071 C.2         1 YFE      -0.1025
      5 CAN        16.4034   20.0455   47.1865 C.3         1 YFE      -0.0201
      6 CAX        17.6890   20.7360   47.5068 C.ar        1 YFE       0.0155
      7 CAW        17.7928   22.1465   47.5064 C.ar        1 YFE       0.0822
      8 CAM        19.0355   22.7745   47.7300 C.ar        1 YFE      -0.0446
      9 OAQ        16.7039   22.9231   47.1909 O.3         1 YFE      -0.3273
     10 CAA        16.1993   23.7026   48.2906 C.3         1 YFE       0.0581
     11 CAU        18.8527   19.9781   47.8053 C.ar        1 YFE       0.0914
     12 OAF        18.7381   18.6184   47.8833 O.3         1 YFE      -0.3377
     13 CAY        20.1074   20.5969   48.0070 C.ar        1 YFE       0.0231
     14 CAS        21.2471   19.7705   48.1618 C.2         1 YFE       0.0456
     15 OAE        21.4094   18.6739   47.3859 O.co2       1 YFE      -0.5694
     16 OAD        22.0948   19.9354   49.2012 O.co2       1 YFE      -0.5694
     17 CAV        20.2047   22.0222   47.9827 C.ar        1 YFE      -0.0494
     18 CAP        21.5067   22.7730   48.0959 C.3         1 YFE      -0.0147
     19 CAO        22.0700   23.1522   46.6917 C.3         1 YFE      -0.0100
     20 CAT        23.5496   22.9930   46.5354 C.ar        1 YFE      -0.0411
     21 CAK        24.3345   23.9360   45.8246 C.ar        1 YFE      -0.0602
     22 CAI        25.6972   23.6890   45.5706 C.ar        1 YFE      -0.0686
     23 CAH        26.2987   22.5064   46.0314 C.ar        1 YFE      -0.0687
     24 CAJ        25.5417   21.5812   46.7704 C.ar        1 YFE      -0.0686
     25 CAL        24.1786   21.8230   47.0261 C.ar        1 YFE      -0.0602
     26 H1         15.4854   16.1297   46.2707 H           1 YFE       0.0377
     27 H2         14.7400   17.5186   47.0632 H           1 YFE       0.0377
     28 H3         16.3986   17.0241   47.4834 H           1 YFE       0.0377
     29 H4         16.8123   18.2234   43.5954 H           1 YFE       0.0377
     30 H5         15.4595   17.1283   43.9094 H           1 YFE       0.0377
     31 H6         17.1165   16.6600   44.3601 H           1 YFE       0.0377
     32 H7         16.7727   19.9061   45.1395 H           1 YFE       0.0254
     33 H8         16.1480   19.3882   48.0171 H           1 YFE       0.0443
     34 H9         15.5750   20.7501   47.0935 H           1 YFE       0.0443
     35 H10        19.0824   23.8014   47.6827 H           1 YFE       0.0383
     36 H11        15.2282   24.1058   47.9908 H           1 YFE       0.0576
     37 H12        16.8734   24.5364   48.5013 H           1 YFE       0.0576
     38 H13        16.0569   23.1033   49.1966 H           1 YFE       0.0576
     39 H14        18.9358   18.3832   48.8262 H           1 YFE       0.2469
     40 H15        22.2450   22.1915   48.6524 H           1 YFE       0.0441
     41 H16        21.3584   23.6955   48.6781 H           1 YFE       0.0441
     42 H17        21.7620   24.1787   46.4474 H           1 YFE       0.0448
     43 H18        21.6335   22.5061   45.9256 H           1 YFE       0.0448
     44 H19        23.9029   24.7901   45.4538 H           1 YFE       0.0557
     45 H20        26.2418   24.3662   45.0280 H           1 YFE       0.0599
     46 H21        27.2779   22.3190   45.8289 H           1 YFE       0.0559
     47 H22        25.9795   20.7209   47.1110 H           1 YFE       0.0599
     48 H23        23.6284   21.1228   47.5337 H           1 YFE       0.0557
@<TRIPOS>BOND
     1     1     2   1
     2     2     3   1
     3     2     4   2
     4     4     5   1
     5     5     6   1
     6     6     7  ar
     7     6    11  ar
     8     7     8  ar
     9     7     9   1
    10     8    17  ar
    11     9    10   1
    12    11    12   1
    13    11    13  ar
    14    13    14   1
    15    13    17  ar
    16    14    15  ar
    17    14    16  ar
    18    17    18   1
    19    18    19   1
    20    19    20   1
    21    20    21  ar
    22    20    25  ar
    23    21    22  ar
    24    22    23  ar
    25    23    24  ar
    26    24    25  ar
    27     1    26   1
    28     1    27   1
    29     1    28   1
    30     3    29   1
    31     3    30   1
    32     3    31   1
    33     4    32   1
    34     5    33   1
    35     5    34   1
    36     8    35   1
    37    10    36   1
    38    10    37   1
    39    10    38   1
    40    12    39   1
    41    18    40   1
    42    18    41   1
    43    19    42   1
    44    19    43   1
    45    21    44   1
    46    22    45   1
    47    23    46   1
    48    24    47   1
    49    25    48   1
@<TRIPOS>SUBSTRUCTURE
     1  YFE      1

