@<TRIPOS>MOLECULE
2yfe_ligand_032
    48    49
SMALL
GAST_HUCK
****
This file was generated by PARSER (from files_GN.cpp)

@<TRIPOS>ATOM
      1 CAB        26.2374   15.0970   45.3094 C.3         1 YFE      -0.0403
      2 CAR        25.0410   14.2780   45.4905 C.2         1 YFE      -0.0856
      3 CAC        25.1142   12.8821   45.0588 C.3         1 YFE      -0.0403
      4 CAG        23.9115   14.7654   46.0538 C.2         1 YFE      -0.1025
      5 CAN        23.5877   16.1675   46.3045 C.3         1 YFE      -0.0201
      6 CAX        22.2161   16.6039   45.8651 C.ar        1 YFE       0.0155
      7 CAW        21.6906   16.2419   44.5923 C.ar        1 YFE       0.0822
      8 CAM        20.4493   16.7448   44.1676 C.ar        1 YFE      -0.0446
      9 OAQ        22.4187   15.4721   43.7192 O.3         1 YFE      -0.3273
     10 CAA        21.8910   14.1390   43.5200 C.3         1 YFE       0.0581
     11 CAU        21.4431   17.4859   46.6715 C.ar        1 YFE       0.0914
     12 OAF        21.9310   17.9100   47.8688 O.3         1 YFE      -0.3377
     13 CAY        20.1707   17.9572   46.2542 C.ar        1 YFE       0.0231
     14 CAS        19.4549   18.8209   47.1105 C.2         1 YFE       0.0456
     15 OAE        19.8789   20.0828   47.3183 O.co2       1 YFE      -0.5694
     16 OAD        18.3672   18.3638   47.7744 O.co2       1 YFE      -0.5694
     17 CAV        19.6561   17.5767   44.9853 C.ar        1 YFE      -0.0494
     18 CAP        18.3392   18.0358   44.4260 C.3         1 YFE      -0.0147
     19 CAO        17.3262   16.8511   44.3127 C.3         1 YFE      -0.0100
     20 CAT        16.1724   17.0628   43.3898 C.ar        1 YFE      -0.0411
     21 CAK        16.3798   17.5762   42.0846 C.ar        1 YFE      -0.0602
     22 CAI        15.3054   17.7024   41.1797 C.ar        1 YFE      -0.0686
     23 CAH        14.0225   17.2703   41.5514 C.ar        1 YFE      -0.0687
     24 CAJ        13.8080   16.7207   42.8256 C.ar        1 YFE      -0.0686
     25 CAL        14.8731   16.6334   43.7401 C.ar        1 YFE      -0.0602
     26 H1         27.0943   14.5150   44.9616 H           1 YFE       0.0377
     27 H2         26.5240   15.5617   46.2549 H           1 YFE       0.0377
     28 H3         26.0470   15.8726   44.5701 H           1 YFE       0.0377
     29 H4         24.1710   12.3401   45.1746 H           1 YFE       0.0377
     30 H5         25.8838   12.3489   45.6244 H           1 YFE       0.0377
     31 H6         25.3787   12.8538   43.9976 H           1 YFE       0.0377
     32 H7         23.2027   14.1136   46.3083 H           1 YFE       0.0254
     33 H8         24.2919   16.8467   45.8281 H           1 YFE       0.0443
     34 H9         23.7229   16.3025   47.3766 H           1 YFE       0.0443
     35 H10        20.1231   16.5014   43.2256 H           1 YFE       0.0383
     36 H11        22.6135   13.5709   42.9352 H           1 YFE       0.0576
     37 H12        20.9507   14.1573   42.9656 H           1 YFE       0.0576
     38 H13        21.7359   13.6218   44.4692 H           1 YFE       0.0576
     39 H14        22.3999   18.7422   47.6593 H           1 YFE       0.2469
     40 H15        18.5242   18.4827   43.4509 H           1 YFE       0.0441
     41 H16        17.8885   18.8154   45.0364 H           1 YFE       0.0441
     42 H17        16.9640   16.6479   45.3238 H           1 YFE       0.0448
     43 H18        17.8364   15.9535   43.9638 H           1 YFE       0.0448
     44 H19        17.3174   17.8479   41.7791 H           1 YFE       0.0557
     45 H20        15.4662   18.0868   40.2474 H           1 YFE       0.0599
     46 H21        13.2451   17.3407   40.8907 H           1 YFE       0.0559
     47 H22        12.8784   16.3783   43.0818 H           1 YFE       0.0599
     48 H23        14.6943   16.2159   44.6581 H           1 YFE       0.0557
@<TRIPOS>BOND
     1     1     2   1
     2     2     3   1
     3     2     4   2
     4     4     5   1
     5     5     6   1
     6     6     7  ar
     7     6    11  ar
     8     7     8  ar
     9     7     9   1
    10     8    17  ar
    11     9    10   1
    12    11    12   1
    13    11    13  ar
    14    13    14   1
    15    13    17  ar
    16    14    15  ar
    17    14    16  ar
    18    17    18   1
    19    18    19   1
    20    19    20   1
    21    20    21  ar
    22    20    25  ar
    23    21    22  ar
    24    22    23  ar
    25    23    24  ar
    26    24    25  ar
    27     1    26   1
    28     1    27   1
    29     1    28   1
    30     3    29   1
    31     3    30   1
    32     3    31   1
    33     4    32   1
    34     5    33   1
    35     5    34   1
    36     8    35   1
    37    10    36   1
    38    10    37   1
    39    10    38   1
    40    12    39   1
    41    18    40   1
    42    18    41   1
    43    19    42   1
    44    19    43   1
    45    21    44   1
    46    22    45   1
    47    23    46   1
    48    24    47   1
    49    25    48   1
@<TRIPOS>SUBSTRUCTURE
     1  YFE      1

