@<TRIPOS>MOLECULE
2yfe_ligand_008
    48    49
SMALL
GAST_HUCK
****
This file was generated by PARSER (from files_GN.cpp)

@<TRIPOS>ATOM
      1 CAB        13.5375   19.2827   49.8034 C.3         1 YFE      -0.0403
      2 CAR        13.7413   19.2658   48.3570 C.2         1 YFE      -0.0856
      3 CAC        12.6189   19.6953   47.5224 C.3         1 YFE      -0.0403
      4 CAG        14.9300   18.9262   47.7936 C.2         1 YFE      -0.1025
      5 CAN        16.1861   18.6380   48.4830 C.3         1 YFE      -0.0201
      6 CAX        17.2601   19.6832   48.3322 C.ar        1 YFE       0.0155
      7 CAW        16.9679   21.0586   48.5369 C.ar        1 YFE       0.0822
      8 CAM        18.0052   22.0079   48.5491 C.ar        1 YFE      -0.0446
      9 OAQ        15.7009   21.5139   48.7772 O.3         1 YFE      -0.3273
     10 CAA        15.0765   22.1571   47.6451 C.3         1 YFE       0.0581
     11 CAU        18.6196   19.3135   48.1333 C.ar        1 YFE       0.0914
     12 OAF        18.9423   17.9971   48.0453 O.3         1 YFE      -0.3377
     13 CAY        19.6647   20.2800   48.1075 C.ar        1 YFE       0.0231
     14 CAS        21.0056   19.8563   47.9411 C.2         1 YFE       0.0456
     15 OAE        21.3235   18.8574   47.0860 O.co2       1 YFE      -0.5694
     16 OAD        21.9306   20.1806   48.8766 O.co2       1 YFE      -0.5694
     17 CAV        19.3466   21.6595   48.2889 C.ar        1 YFE      -0.0494
     18 CAP        20.3156   22.8037   48.1779 C.3         1 YFE      -0.0147
     19 CAO        20.1716   23.5982   46.8425 C.3         1 YFE      -0.0100
     20 CAT        20.0460   25.0731   47.0181 C.ar        1 YFE      -0.0411
     21 CAK        21.1655   25.9249   46.8498 C.ar        1 YFE      -0.0602
     22 CAI        21.0343   27.3192   46.9795 C.ar        1 YFE      -0.0686
     23 CAH        19.7800   27.8826   47.2871 C.ar        1 YFE      -0.0687
     24 CAJ        18.6634   27.0508   47.4669 C.ar        1 YFE      -0.0686
     25 CAL        18.7965   25.6580   47.3332 C.ar        1 YFE      -0.0602
     26 H1         12.5310   19.6040   50.0777 H           1 YFE       0.0377
     27 H2         14.2398   19.9634   50.2930 H           1 YFE       0.0377
     28 H3         13.6777   18.2786   50.2000 H           1 YFE       0.0377
     29 H4         12.8392   19.6884   46.4524 H           1 YFE       0.0377
     30 H5         12.3210   20.7120   47.7935 H           1 YFE       0.0377
     31 H6         11.7719   19.0330   47.6964 H           1 YFE       0.0377
     32 H7         14.9863   18.9136   46.7949 H           1 YFE       0.0254
     33 H8         16.5106   17.6684   48.1021 H           1 YFE       0.0443
     34 H9         16.0420   18.5016   49.5563 H           1 YFE       0.0443
     35 H10        17.7613   22.9821   48.7367 H           1 YFE       0.0383
     36 H11        14.0556   22.4274   47.9145 H           1 YFE       0.0576
     37 H12        15.0393   21.4961   46.7770 H           1 YFE       0.0576
     38 H13        15.6022   23.0743   47.3702 H           1 YFE       0.0576
     39 H14        19.0559   17.7177   48.9789 H           1 YFE       0.2469
     40 H15        21.3483   22.4582   48.2588 H           1 YFE       0.0441
     41 H16        20.1747   23.4577   49.0471 H           1 YFE       0.0441
     42 H17        19.3082   23.2499   46.2672 H           1 YFE       0.0448
     43 H18        21.0421   23.3787   46.2157 H           1 YFE       0.0448
     44 H19        22.0851   25.5346   46.6316 H           1 YFE       0.0557
     45 H20        21.8499   27.9265   46.8557 H           1 YFE       0.0599
     46 H21        19.6850   28.9009   47.3756 H           1 YFE       0.0559
     47 H22        17.7572   27.4605   47.6992 H           1 YFE       0.0599
     48 H23        17.9699   25.0733   47.4547 H           1 YFE       0.0557
@<TRIPOS>BOND
     1     1     2   1
     2     2     3   1
     3     2     4   2
     4     4     5   1
     5     5     6   1
     6     6     7  ar
     7     6    11  ar
     8     7     8  ar
     9     7     9   1
    10     8    17  ar
    11     9    10   1
    12    11    12   1
    13    11    13  ar
    14    13    14   1
    15    13    17  ar
    16    14    15  ar
    17    14    16  ar
    18    17    18   1
    19    18    19   1
    20    19    20   1
    21    20    21  ar
    22    20    25  ar
    23    21    22  ar
    24    22    23  ar
    25    23    24  ar
    26    24    25  ar
    27     1    26   1
    28     1    27   1
    29     1    28   1
    30     3    29   1
    31     3    30   1
    32     3    31   1
    33     4    32   1
    34     5    33   1
    35     5    34   1
    36     8    35   1
    37    10    36   1
    38    10    37   1
    39    10    38   1
    40    12    39   1
    41    18    40   1
    42    18    41   1
    43    19    42   1
    44    19    43   1
    45    21    44   1
    46    22    45   1
    47    23    46   1
    48    24    47   1
    49    25    48   1
@<TRIPOS>SUBSTRUCTURE
     1  YFE      1

