@<TRIPOS>MOLECULE
2yfe_ligand_041
    48    49
SMALL
GAST_HUCK
****
This file was generated by PARSER (from files_GN.cpp)

@<TRIPOS>ATOM
      1 CAB        15.6694   22.5126   50.5772 C.3         1 YFE      -0.0403
      2 CAR        15.5953   22.8111   49.1480 C.2         1 YFE      -0.0856
      3 CAC        14.5353   22.1506   48.3839 C.3         1 YFE      -0.0403
      4 CAG        16.4525   23.6655   48.5366 C.2         1 YFE      -0.1025
      5 CAN        17.5882   24.3712   49.1223 C.3         1 YFE      -0.0201
      6 CAX        18.8254   24.1884   48.3081 C.ar        1 YFE       0.0155
      7 CAW        19.3269   25.2263   47.4783 C.ar        1 YFE       0.0822
      8 CAM        20.4869   25.0106   46.7116 C.ar        1 YFE      -0.0446
      9 OAQ        18.6660   26.4294   47.3555 O.3         1 YFE      -0.3273
     10 CAA        19.3204   27.5497   47.9809 C.3         1 YFE       0.0581
     11 CAU        19.5402   22.9619   48.3633 C.ar        1 YFE       0.0914
     12 OAF        19.1237   21.9729   49.2010 O.3         1 YFE      -0.3377
     13 CAY        20.7372   22.7700   47.6273 C.ar        1 YFE       0.0231
     14 CAS        21.3943   21.5204   47.7102 C.2         1 YFE       0.0456
     15 OAE        20.7048   20.4032   47.3844 O.co2       1 YFE      -0.5694
     16 OAD        22.3649   21.3621   48.6364 O.co2       1 YFE      -0.5694
     17 CAV        21.2429   23.8166   46.8114 C.ar        1 YFE      -0.0494
     18 CAP        22.5791   23.7724   46.1396 C.3         1 YFE      -0.0147
     19 CAO        23.7812   24.0767   47.0851 C.3         1 YFE      -0.0100
     20 CAT        23.6340   25.3202   47.8982 C.ar        1 YFE      -0.0411
     21 CAK        22.9353   25.2963   49.1320 C.ar        1 YFE      -0.0602
     22 CAI        22.7281   26.4776   49.8682 C.ar        1 YFE      -0.0686
     23 CAH        23.2330   27.6989   49.3926 C.ar        1 YFE      -0.0687
     24 CAJ        23.9548   27.7385   48.1823 C.ar        1 YFE      -0.0686
     25 CAL        24.1463   26.5585   47.4399 C.ar        1 YFE      -0.0602
     26 H1         14.8989   21.8059   50.8994 H           1 YFE       0.0377
     27 H2         15.5415   23.4276   51.1592 H           1 YFE       0.0377
     28 H3         16.6354   22.0715   50.8167 H           1 YFE       0.0377
     29 H4         14.5329   22.4125   47.3236 H           1 YFE       0.0377
     30 H5         13.5616   22.4210   48.7969 H           1 YFE       0.0377
     31 H6         14.6554   21.0678   48.4581 H           1 YFE       0.0377
     32 H7         16.2871   23.8602   47.5750 H           1 YFE       0.0254
     33 H8         17.8084   24.0541   50.1401 H           1 YFE       0.0443
     34 H9         17.3114   25.4226   49.1864 H           1 YFE       0.0443
     35 H10        20.8193   25.7607   46.1041 H           1 YFE       0.0383
     36 H11        18.6428   28.4032   47.9296 H           1 YFE       0.0576
     37 H12        20.2352   27.8221   47.4535 H           1 YFE       0.0576
     38 H13        19.5558   27.3456   49.0293 H           1 YFE       0.0576
     39 H14        18.2079   21.7529   48.9216 H           1 YFE       0.2469
     40 H15        22.6164   24.4909   45.3170 H           1 YFE       0.0441
     41 H16        22.7289   22.7918   45.6851 H           1 YFE       0.0441
     42 H17        24.6826   24.1521   46.4720 H           1 YFE       0.0448
     43 H18        23.9535   23.2299   47.7496 H           1 YFE       0.0448
     44 H19        22.5560   24.4197   49.4941 H           1 YFE       0.0557
     45 H20        22.2039   26.4495   50.7452 H           1 YFE       0.0599
     46 H21        23.0832   28.5614   49.9255 H           1 YFE       0.0559
     47 H22        24.3286   28.6276   47.8424 H           1 YFE       0.0599
     48 H23        24.6573   26.6100   46.5563 H           1 YFE       0.0557
@<TRIPOS>BOND
     1     1     2   1
     2     2     3   1
     3     2     4   2
     4     4     5   1
     5     5     6   1
     6     6     7  ar
     7     6    11  ar
     8     7     8  ar
     9     7     9   1
    10     8    17  ar
    11     9    10   1
    12    11    12   1
    13    11    13  ar
    14    13    14   1
    15    13    17  ar
    16    14    15  ar
    17    14    16  ar
    18    17    18   1
    19    18    19   1
    20    19    20   1
    21    20    21  ar
    22    20    25  ar
    23    21    22  ar
    24    22    23  ar
    25    23    24  ar
    26    24    25  ar
    27     1    26   1
    28     1    27   1
    29     1    28   1
    30     3    29   1
    31     3    30   1
    32     3    31   1
    33     4    32   1
    34     5    33   1
    35     5    34   1
    36     8    35   1
    37    10    36   1
    38    10    37   1
    39    10    38   1
    40    12    39   1
    41    18    40   1
    42    18    41   1
    43    19    42   1
    44    19    43   1
    45    21    44   1
    46    22    45   1
    47    23    46   1
    48    24    47   1
    49    25    48   1
@<TRIPOS>SUBSTRUCTURE
     1  YFE      1

