@<TRIPOS>MOLECULE
2yfe_ligand_034
    48    49
SMALL
GAST_HUCK
****
This file was generated by PARSER (from files_GN.cpp)

@<TRIPOS>ATOM
      1 CAB        15.4619   16.9218   45.1786 C.3         1 YFE      -0.0403
      2 CAR        16.7246   16.8155   44.4474 C.2         1 YFE      -0.0856
      3 CAC        16.6397   16.5008   43.0231 C.3         1 YFE      -0.0403
      4 CAG        17.9298   17.0031   45.0342 C.2         1 YFE      -0.1025
      5 CAN        18.1797   17.3851   46.4208 C.3         1 YFE      -0.0201
      6 CAX        18.7973   18.7371   46.5989 C.ar        1 YFE       0.0155
      7 CAW        18.1863   19.8857   46.0365 C.ar        1 YFE       0.0822
      8 CAM        18.6061   21.1717   46.4134 C.ar        1 YFE      -0.0446
      9 OAQ        17.1586   19.7712   45.1354 O.3         1 YFE      -0.3273
     10 CAA        17.6062   19.9593   43.7752 C.3         1 YFE       0.0581
     11 CAU        19.9264   18.9233   47.4408 C.ar        1 YFE       0.0914
     12 OAF        20.5483   17.8218   47.9490 O.3         1 YFE      -0.3377
     13 CAY        20.4118   20.2232   47.7639 C.ar        1 YFE       0.0231
     14 CAS        21.5687   20.3420   48.5895 C.2         1 YFE       0.0456
     15 OAE        22.4532   21.3557   48.4599 O.co2       1 YFE      -0.5694
     16 OAD        21.8855   19.4315   49.5379 O.co2       1 YFE      -0.5694
     17 CAV        19.7072   21.3684   47.2734 C.ar        1 YFE      -0.0494
     18 CAP        20.0527   22.7802   47.6474 C.3         1 YFE      -0.0147
     19 CAO        21.1766   23.4108   46.7609 C.3         1 YFE      -0.0100
     20 CAT        22.1911   24.3344   47.3653 C.ar        1 YFE      -0.0411
     21 CAK        22.2836   24.6675   48.7428 C.ar        1 YFE      -0.0602
     22 CAI        23.3340   25.4658   49.2320 C.ar        1 YFE      -0.0686
     23 CAH        24.3058   25.9706   48.3537 C.ar        1 YFE      -0.0687
     24 CAJ        24.2195   25.6827   46.9800 C.ar        1 YFE      -0.0686
     25 CAL        23.1743   24.8732   46.4958 C.ar        1 YFE      -0.0602
     26 H1         14.5910   16.7571   44.5392 H           1 YFE       0.0377
     27 H2         15.3587   17.9164   45.6147 H           1 YFE       0.0377
     28 H3         15.4259   16.1795   45.9801 H           1 YFE       0.0377
     29 H4         17.6135   16.4340   42.5350 H           1 YFE       0.0377
     30 H5         16.0705   17.2855   42.5205 H           1 YFE       0.0377
     31 H6         16.1301   15.5448   42.8815 H           1 YFE       0.0377
     32 H7         18.7453   16.8763   44.4796 H           1 YFE       0.0254
     33 H8         18.8015   16.5924   46.8440 H           1 YFE       0.0443
     34 H9         17.2701   17.3883   47.0246 H           1 YFE       0.0443
     35 H10        18.1093   21.9783   46.0284 H           1 YFE       0.0383
     36 H11        16.7682   19.7420   43.1090 H           1 YFE       0.0576
     37 H12        18.4317   19.2866   43.5103 H           1 YFE       0.0576
     38 H13        17.9185   20.9964   43.6175 H           1 YFE       0.0576
     39 H14        20.0956   17.6402   48.8010 H           1 YFE       0.2469
     40 H15        20.3058   22.7678   48.7021 H           1 YFE       0.0441
     41 H16        19.1704   23.4280   47.5809 H           1 YFE       0.0441
     42 H17        20.6858   23.9459   45.9452 H           1 YFE       0.0448
     43 H18        21.7464   22.6037   46.2938 H           1 YFE       0.0448
     44 H19        21.6065   24.3344   49.4257 H           1 YFE       0.0557
     45 H20        23.3970   25.6751   50.2307 H           1 YFE       0.0599
     46 H21        25.0736   26.5464   48.7088 H           1 YFE       0.0559
     47 H22        24.9217   26.0525   46.3333 H           1 YFE       0.0599
     48 H23        23.1464   24.6643   45.4908 H           1 YFE       0.0557
@<TRIPOS>BOND
     1     1     2   1
     2     2     3   1
     3     2     4   2
     4     4     5   1
     5     5     6   1
     6     6     7  ar
     7     6    11  ar
     8     7     8  ar
     9     7     9   1
    10     8    17  ar
    11     9    10   1
    12    11    12   1
    13    11    13  ar
    14    13    14   1
    15    13    17  ar
    16    14    15  ar
    17    14    16  ar
    18    17    18   1
    19    18    19   1
    20    19    20   1
    21    20    21  ar
    22    20    25  ar
    23    21    22  ar
    24    22    23  ar
    25    23    24  ar
    26    24    25  ar
    27     1    26   1
    28     1    27   1
    29     1    28   1
    30     3    29   1
    31     3    30   1
    32     3    31   1
    33     4    32   1
    34     5    33   1
    35     5    34   1
    36     8    35   1
    37    10    36   1
    38    10    37   1
    39    10    38   1
    40    12    39   1
    41    18    40   1
    42    18    41   1
    43    19    42   1
    44    19    43   1
    45    21    44   1
    46    22    45   1
    47    23    46   1
    48    24    47   1
    49    25    48   1
@<TRIPOS>SUBSTRUCTURE
     1  YFE      1

