@<TRIPOS>MOLECULE
2yfe_ligand_038
    48    49
SMALL
GAST_HUCK
****
This file was generated by PARSER (from files_GN.cpp)

@<TRIPOS>ATOM
      1 CAB        26.5574   15.0028   44.1840 C.3         1 YFE      -0.0403
      2 CAR        25.8712   14.3555   45.3007 C.2         1 YFE      -0.0856
      3 CAC        25.7289   12.9004   45.2319 C.3         1 YFE      -0.0403
      4 CAG        25.3682   15.0459   46.3537 C.2         1 YFE      -0.1025
      5 CAN        25.2277   16.4961   46.4782 C.3         1 YFE      -0.0201
      6 CAX        23.8278   16.9544   46.7756 C.ar        1 YFE       0.0155
      7 CAW        22.7433   16.5228   45.9718 C.ar        1 YFE       0.0822
      8 CAM        21.4475   17.0328   46.1897 C.ar        1 YFE      -0.0446
      9 OAQ        22.9419   15.6784   44.9070 O.3         1 YFE      -0.3273
     10 CAA        22.3682   14.3634   45.0739 C.3         1 YFE       0.0581
     11 CAU        23.5563   17.8988   47.8032 C.ar        1 YFE       0.0914
     12 OAF        24.6040   18.4087   48.5140 O.3         1 YFE      -0.3377
     13 CAY        22.2444   18.4087   48.0174 C.ar        1 YFE       0.0231
     14 CAS        22.0400   19.3688   49.0395 C.2         1 YFE       0.0456
     15 OAE        22.5129   19.1633   50.2915 O.co2       1 YFE      -0.5694
     16 OAD        21.4254   20.5452   48.7850 O.co2       1 YFE      -0.5694
     17 CAV        21.1566   17.9707   47.1983 C.ar        1 YFE      -0.0494
     18 CAP        19.7554   18.4955   47.3826 C.3         1 YFE      -0.0147
     19 CAO        18.5228   17.8074   46.7185 C.3         1 YFE      -0.0100
     20 CAT        18.4194   17.9025   45.2336 C.ar        1 YFE      -0.0411
     21 CAK        18.4673   16.7416   44.4221 C.ar        1 YFE      -0.0602
     22 CAI        18.4421   16.8377   43.0189 C.ar        1 YFE      -0.0686
     23 CAH        18.3270   18.0962   42.4008 C.ar        1 YFE      -0.0687
     24 CAJ        18.2087   19.2508   43.1931 C.ar        1 YFE      -0.0686
     25 CAL        18.2444   19.1549   44.5967 C.ar        1 YFE      -0.0602
     26 H1         26.9714   14.2850   43.4719 H           1 YFE       0.0377
     27 H2         27.3871   15.6099   44.5537 H           1 YFE       0.0377
     28 H3         25.8607   15.6377   43.6370 H           1 YFE       0.0377
     29 H4         25.1600   12.4796   46.0651 H           1 YFE       0.0377
     30 H5         26.7139   12.4283   45.2234 H           1 YFE       0.0377
     31 H6         25.2065   12.6293   44.3107 H           1 YFE       0.0377
     32 H7         25.0191   14.5242   47.1244 H           1 YFE       0.0254
     33 H8         25.5488   17.0162   45.5779 H           1 YFE       0.0443
     34 H9         25.9222   16.8031   47.2592 H           1 YFE       0.0443
     35 H10        20.7098   16.7033   45.5726 H           1 YFE       0.0383
     36 H11        22.6562   13.7539   44.2164 H           1 YFE       0.0576
     37 H12        21.2758   14.4015   45.1071 H           1 YFE       0.0576
     38 H13        22.7365   13.8756   45.9814 H           1 YFE       0.0576
     39 H14        24.3302   18.3793   49.4560 H           1 YFE       0.2469
     40 H15        19.7565   19.5475   47.0899 H           1 YFE       0.0441
     41 H16        19.5447   18.4658   48.4565 H           1 YFE       0.0441
     42 H17        17.6113   18.2628   47.1256 H           1 YFE       0.0448
     43 H18        18.5145   16.7668   47.0471 H           1 YFE       0.0448
     44 H19        18.5501   15.8190   44.8424 H           1 YFE       0.0557
     45 H20        18.5219   15.9907   42.4499 H           1 YFE       0.0599
     46 H21        18.3234   18.1631   41.3821 H           1 YFE       0.0559
     47 H22        18.1087   20.1632   42.7513 H           1 YFE       0.0599
     48 H23        18.1554   20.0114   45.1527 H           1 YFE       0.0557
@<TRIPOS>BOND
     1     1     2   1
     2     2     3   1
     3     2     4   2
     4     4     5   1
     5     5     6   1
     6     6     7  ar
     7     6    11  ar
     8     7     8  ar
     9     7     9   1
    10     8    17  ar
    11     9    10   1
    12    11    12   1
    13    11    13  ar
    14    13    14   1
    15    13    17  ar
    16    14    15  ar
    17    14    16  ar
    18    17    18   1
    19    18    19   1
    20    19    20   1
    21    20    21  ar
    22    20    25  ar
    23    21    22  ar
    24    22    23  ar
    25    23    24  ar
    26    24    25  ar
    27     1    26   1
    28     1    27   1
    29     1    28   1
    30     3    29   1
    31     3    30   1
    32     3    31   1
    33     4    32   1
    34     5    33   1
    35     5    34   1
    36     8    35   1
    37    10    36   1
    38    10    37   1
    39    10    38   1
    40    12    39   1
    41    18    40   1
    42    18    41   1
    43    19    42   1
    44    19    43   1
    45    21    44   1
    46    22    45   1
    47    23    46   1
    48    24    47   1
    49    25    48   1
@<TRIPOS>SUBSTRUCTURE
     1  YFE      1

