@<TRIPOS>MOLECULE
2yfe_ligand_012
    48    49
SMALL
GAST_HUCK
****
This file was generated by PARSER (from files_GN.cpp)

@<TRIPOS>ATOM
      1 CAB        15.7942   16.6766   47.5721 C.3         1 YFE      -0.0403
      2 CAR        15.8543   17.6031   46.4406 C.2         1 YFE      -0.0856
      3 CAC        15.7279   17.0258   45.1002 C.3         1 YFE      -0.0403
      4 CAG        16.0177   18.9334   46.5923 C.2         1 YFE      -0.1025
      5 CAN        16.2061   19.6903   47.8286 C.3         1 YFE      -0.0201
      6 CAX        17.4917   20.4551   47.7912 C.ar        1 YFE       0.0155
      7 CAW        17.5093   21.8605   47.5984 C.ar        1 YFE       0.0822
      8 CAM        18.7455   22.5256   47.4871 C.ar        1 YFE      -0.0446
      9 OAQ        16.3393   22.5552   47.3820 O.3         1 YFE      -0.3273
     10 CAA        16.0714   23.6844   48.2362 C.3         1 YFE       0.0581
     11 CAU        18.7286   19.7734   47.9198 C.ar        1 YFE       0.0914
     12 OAF        18.7067   18.4378   48.1929 O.3         1 YFE      -0.3377
     13 CAY        19.9696   20.4461   47.7730 C.ar        1 YFE       0.0231
     14 CAS        21.1665   19.6981   47.9103 C.2         1 YFE       0.0456
     15 OAE        21.3302   18.5160   47.2720 O.co2       1 YFE      -0.5694
     16 OAD        22.1192   20.0733   48.7979 O.co2       1 YFE      -0.5694
     17 CAV        19.9882   21.8466   47.4989 C.ar        1 YFE      -0.0494
     18 CAP        21.2411   22.6350   47.2523 C.3         1 YFE      -0.0147
     19 CAO        21.1998   23.7740   46.1676 C.3         1 YFE      -0.0100
     20 CAT        21.6590   25.0946   46.6828 C.ar        1 YFE      -0.0411
     21 CAK        20.7344   26.1281   46.9741 C.ar        1 YFE      -0.0602
     22 CAI        21.1768   27.3573   47.4960 C.ar        1 YFE      -0.0686
     23 CAH        22.5480   27.5737   47.7233 C.ar        1 YFE      -0.0687
     24 CAJ        23.4764   26.5606   47.4285 C.ar        1 YFE      -0.0686
     25 CAL        23.0346   25.3270   46.9177 C.ar        1 YFE      -0.0602
     26 H1         15.6325   15.6413   47.2593 H           1 YFE       0.0377
     27 H2         14.9723   16.9509   48.2363 H           1 YFE       0.0377
     28 H3         16.7292   16.7039   48.1315 H           1 YFE       0.0377
     29 H4         15.7534   17.7694   44.2996 H           1 YFE       0.0377
     30 H5         14.7836   16.4840   45.0156 H           1 YFE       0.0377
     31 H6         16.5489   16.3284   44.9251 H           1 YFE       0.0377
     32 H7         16.0099   19.4932   45.7695 H           1 YFE       0.0254
     33 H8         16.2010   19.0591   48.7201 H           1 YFE       0.0443
     34 H9         15.3439   20.3519   47.9316 H           1 YFE       0.0443
     35 H10        18.7210   23.5290   47.3520 H           1 YFE       0.0383
     36 H11        15.0569   24.0296   48.0377 H           1 YFE       0.0576
     37 H12        16.7476   24.5147   48.0243 H           1 YFE       0.0576
     38 H13        16.1482   23.4119   49.2910 H           1 YFE       0.0576
     39 H14        19.0353   18.3484   49.1140 H           1 YFE       0.2469
     40 H15        22.0438   21.9619   46.9409 H           1 YFE       0.0441
     41 H16        21.5413   23.0443   48.2204 H           1 YFE       0.0441
     42 H17        20.2102   23.8851   45.7211 H           1 YFE       0.0448
     43 H18        21.8250   23.5036   45.3134 H           1 YFE       0.0448
     44 H19        19.7319   25.9869   46.8202 H           1 YFE       0.0557
     45 H20        20.5004   28.0915   47.7141 H           1 YFE       0.0599
     46 H21        22.8669   28.4669   48.1036 H           1 YFE       0.0559
     47 H22        24.4720   26.7190   47.5895 H           1 YFE       0.0599
     48 H23        23.7215   24.5961   46.7158 H           1 YFE       0.0557
@<TRIPOS>BOND
     1     1     2   1
     2     2     3   1
     3     2     4   2
     4     4     5   1
     5     5     6   1
     6     6     7  ar
     7     6    11  ar
     8     7     8  ar
     9     7     9   1
    10     8    17  ar
    11     9    10   1
    12    11    12   1
    13    11    13  ar
    14    13    14   1
    15    13    17  ar
    16    14    15  ar
    17    14    16  ar
    18    17    18   1
    19    18    19   1
    20    19    20   1
    21    20    21  ar
    22    20    25  ar
    23    21    22  ar
    24    22    23  ar
    25    23    24  ar
    26    24    25  ar
    27     1    26   1
    28     1    27   1
    29     1    28   1
    30     3    29   1
    31     3    30   1
    32     3    31   1
    33     4    32   1
    34     5    33   1
    35     5    34   1
    36     8    35   1
    37    10    36   1
    38    10    37   1
    39    10    38   1
    40    12    39   1
    41    18    40   1
    42    18    41   1
    43    19    42   1
    44    19    43   1
    45    21    44   1
    46    22    45   1
    47    23    46   1
    48    24    47   1
    49    25    48   1
@<TRIPOS>SUBSTRUCTURE
     1  YFE      1

