@<TRIPOS>MOLECULE
2yfe_ligand_036
    48    49
SMALL
GAST_HUCK
****
This file was generated by PARSER (from files_GN.cpp)

@<TRIPOS>ATOM
      1 CAB        23.6859   22.2406   47.4567 C.3         1 YFE      -0.0403
      2 CAR        22.4028   21.6285   47.7776 C.2         1 YFE      -0.0856
      3 CAC        21.2275   22.5117   47.8065 C.3         1 YFE      -0.0403
      4 CAG        22.2678   20.2977   48.0493 C.2         1 YFE      -0.1025
      5 CAN        23.2931   19.2487   48.0448 C.3         1 YFE      -0.0201
      6 CAX        23.0721   18.1011   47.1254 C.ar        1 YFE       0.0155
      7 CAW        24.1614   17.3140   46.6809 C.ar        1 YFE       0.0822
      8 CAM        23.9622   16.1878   45.8585 C.ar        1 YFE      -0.0446
      9 OAQ        25.4142   17.5029   47.2444 O.3         1 YFE      -0.3273
     10 CAA        26.5448   17.6941   46.3646 C.3         1 YFE       0.0581
     11 CAU        21.7673   17.6463   46.7787 C.ar        1 YFE       0.0914
     12 OAF        20.6840   18.2817   47.3580 O.3         1 YFE      -0.3377
     13 CAY        21.5418   16.5215   45.9348 C.ar        1 YFE       0.0231
     14 CAS        20.2356   16.0420   45.7250 C.2         1 YFE       0.0456
     15 OAE        19.1841   16.8850   45.7494 O.co2       1 YFE      -0.5694
     16 OAD        19.9811   14.7473   46.0253 O.co2       1 YFE      -0.5694
     17 CAV        22.6657   15.8117   45.4168 C.ar        1 YFE      -0.0494
     18 CAP        22.5555   14.6655   44.4447 C.3         1 YFE      -0.0147
     19 CAO        22.1089   15.0835   43.0100 C.3         1 YFE      -0.0100
     20 CAT        20.8276   15.8414   42.9432 C.ar        1 YFE      -0.0411
     21 CAK        19.6094   15.1840   43.2088 C.ar        1 YFE      -0.0602
     22 CAI        18.3870   15.8914   43.1103 C.ar        1 YFE      -0.0686
     23 CAH        18.3777   17.2491   42.7529 C.ar        1 YFE      -0.0687
     24 CAJ        19.5909   17.9183   42.5174 C.ar        1 YFE      -0.0686
     25 CAL        20.8186   17.2154   42.6067 C.ar        1 YFE      -0.0602
     26 H1         23.5972   23.3243   47.2746 H           1 YFE       0.0377
     27 H2         24.1094   21.7810   46.5586 H           1 YFE       0.0377
     28 H3         24.3774   22.1060   48.2972 H           1 YFE       0.0377
     29 H4         20.2951   21.9805   48.0193 H           1 YFE       0.0377
     30 H5         21.1122   22.9969   46.8321 H           1 YFE       0.0377
     31 H6         21.3649   23.2687   48.5790 H           1 YFE       0.0377
     32 H7         21.3753   19.9808   48.3435 H           1 YFE       0.0254
     33 H8         23.3341   18.8457   49.0668 H           1 YFE       0.0443
     34 H9         24.2721   19.7007   47.8777 H           1 YFE       0.0443
     35 H10        24.7706   15.6302   45.5851 H           1 YFE       0.0383
     36 H11        27.4124   17.9163   46.9862 H           1 YFE       0.0576
     37 H12        26.3800   18.5382   45.6967 H           1 YFE       0.0576
     38 H13        26.7617   16.8017   45.7849 H           1 YFE       0.0576
     39 H14        20.4657   17.7290   48.1388 H           1 YFE       0.2469
     40 H15        21.8879   13.8902   44.8332 H           1 YFE       0.0441
     41 H16        23.5200   14.1684   44.3272 H           1 YFE       0.0441
     42 H17        22.0182   14.1871   42.3959 H           1 YFE       0.0448
     43 H18        22.9251   15.6709   42.5704 H           1 YFE       0.0448
     44 H19        19.5807   14.1881   43.3975 H           1 YFE       0.0557
     45 H20        17.5041   15.4034   43.2864 H           1 YFE       0.0599
     46 H21        17.4969   17.7507   42.6572 H           1 YFE       0.0559
     47 H22        19.5913   18.9117   42.2680 H           1 YFE       0.0599
     48 H23        21.6805   17.7234   42.4483 H           1 YFE       0.0557
@<TRIPOS>BOND
     1     1     2   1
     2     2     3   1
     3     2     4   2
     4     4     5   1
     5     5     6   1
     6     6     7  ar
     7     6    11  ar
     8     7     8  ar
     9     7     9   1
    10     8    17  ar
    11     9    10   1
    12    11    12   1
    13    11    13  ar
    14    13    14   1
    15    13    17  ar
    16    14    15  ar
    17    14    16  ar
    18    17    18   1
    19    18    19   1
    20    19    20   1
    21    20    21  ar
    22    20    25  ar
    23    21    22  ar
    24    22    23  ar
    25    23    24  ar
    26    24    25  ar
    27     1    26   1
    28     1    27   1
    29     1    28   1
    30     3    29   1
    31     3    30   1
    32     3    31   1
    33     4    32   1
    34     5    33   1
    35     5    34   1
    36     8    35   1
    37    10    36   1
    38    10    37   1
    39    10    38   1
    40    12    39   1
    41    18    40   1
    42    18    41   1
    43    19    42   1
    44    19    43   1
    45    21    44   1
    46    22    45   1
    47    23    46   1
    48    24    47   1
    49    25    48   1
@<TRIPOS>SUBSTRUCTURE
     1  YFE      1

