@<TRIPOS>MOLECULE
2yfe_ligand_001
    48    49
SMALL
GAST_HUCK
****
This file was generated by PARSER (from files_GN.cpp)

@<TRIPOS>ATOM
      1 CAB        17.6868   19.3349   43.9379 C.3         1 YFE      -0.0403
      2 CAR        16.9930   18.0565   44.0561 C.2         1 YFE      -0.0856
      3 CAC        16.3513   17.5157   42.8584 C.3         1 YFE      -0.0403
      4 CAG        16.9328   17.3850   45.2277 C.2         1 YFE      -0.1025
      5 CAN        17.5706   17.7665   46.4846 C.3         1 YFE      -0.0201
      6 CAX        19.0653   17.6860   46.6071 C.ar        1 YFE       0.0155
      7 CAW        19.9092   16.9594   45.7239 C.ar        1 YFE       0.0822
      8 CAM        21.3043   16.9214   45.9522 C.ar        1 YFE      -0.0446
      9 OAQ        19.3671   16.2114   44.7084 O.3         1 YFE      -0.3273
     10 CAA        19.8400   16.4864   43.3750 C.3         1 YFE       0.0581
     11 CAU        19.6648   18.2892   47.7453 C.ar        1 YFE       0.0914
     12 OAF        18.8690   18.9322   48.6499 O.3         1 YFE      -0.3377
     13 CAY        21.0659   18.2323   47.9680 C.ar        1 YFE       0.0231
     14 CAS        21.5976   18.8679   49.1023 C.2         1 YFE       0.0456
     15 OAE        21.8238   18.1950   50.2552 O.co2       1 YFE      -0.5694
     16 OAD        21.9573   20.1648   48.9995 O.co2       1 YFE      -0.5694
     17 CAV        21.9211   17.5935   47.0343 C.ar        1 YFE      -0.0494
     18 CAP        23.4278   17.5823   47.1309 C.3         1 YFE      -0.0147
     19 CAO        24.1078   18.9555   47.4565 C.3         1 YFE      -0.0100
     20 CAT        25.4725   19.2704   46.9233 C.ar        1 YFE      -0.0411
     21 CAK        25.9254   20.6100   47.0353 C.ar        1 YFE      -0.0602
     22 CAI        27.1749   21.0080   46.5243 C.ar        1 YFE      -0.0686
     23 CAH        28.0066   20.0663   45.9012 C.ar        1 YFE      -0.0687
     24 CAJ        27.5987   18.7242   45.8111 C.ar        1 YFE      -0.0686
     25 CAL        26.3466   18.3273   46.3232 C.ar        1 YFE      -0.0602
     26 H1         17.7199   19.6943   42.9096 H           1 YFE       0.0377
     27 H2         18.7152   19.2462   44.2887 H           1 YFE       0.0377
     28 H3         17.1693   20.0883   44.5348 H           1 YFE       0.0377
     29 H4         15.8094   16.5811   43.0349 H           1 YFE       0.0377
     30 H5         17.1045   17.3230   42.0917 H           1 YFE       0.0377
     31 H6         15.6363   18.2403   42.4678 H           1 YFE       0.0377
     32 H7         16.3881   16.5493   45.2623 H           1 YFE       0.0254
     33 H8         17.1579   17.1438   47.2871 H           1 YFE       0.0443
     34 H9         17.2397   18.7879   46.6952 H           1 YFE       0.0443
     35 H10        21.8756   16.3681   45.3116 H           1 YFE       0.0383
     36 H11        19.1891   15.9767   42.6608 H           1 YFE       0.0576
     37 H12        20.8513   16.0992   43.2406 H           1 YFE       0.0576
     38 H13        19.8254   17.5558   43.1475 H           1 YFE       0.0576
     39 H14        18.8894   18.3747   49.4546 H           1 YFE       0.2469
     40 H15        23.8355   17.2193   46.1831 H           1 YFE       0.0441
     41 H16        23.7142   16.8565   47.8993 H           1 YFE       0.0441
     42 H17        24.1897   19.0431   48.5439 H           1 YFE       0.0448
     43 H18        23.4253   19.7452   47.1290 H           1 YFE       0.0448
     44 H19        25.3378   21.3176   47.4821 H           1 YFE       0.0557
     45 H20        27.4729   21.9822   46.6020 H           1 YFE       0.0599
     46 H21        28.9148   20.3545   45.5260 H           1 YFE       0.0559
     47 H22        28.2127   18.0340   45.3734 H           1 YFE       0.0599
     48 H23        26.0976   17.3435   46.2546 H           1 YFE       0.0557
@<TRIPOS>BOND
     1     1     2   1
     2     2     3   1
     3     2     4   2
     4     4     5   1
     5     5     6   1
     6     6     7  ar
     7     6    11  ar
     8     7     8  ar
     9     7     9   1
    10     8    17  ar
    11     9    10   1
    12    11    12   1
    13    11    13  ar
    14    13    14   1
    15    13    17  ar
    16    14    15  ar
    17    14    16  ar
    18    17    18   1
    19    18    19   1
    20    19    20   1
    21    20    21  ar
    22    20    25  ar
    23    21    22  ar
    24    22    23  ar
    25    23    24  ar
    26    24    25  ar
    27     1    26   1
    28     1    27   1
    29     1    28   1
    30     3    29   1
    31     3    30   1
    32     3    31   1
    33     4    32   1
    34     5    33   1
    35     5    34   1
    36     8    35   1
    37    10    36   1
    38    10    37   1
    39    10    38   1
    40    12    39   1
    41    18    40   1
    42    18    41   1
    43    19    42   1
    44    19    43   1
    45    21    44   1
    46    22    45   1
    47    23    46   1
    48    24    47   1
    49    25    48   1
@<TRIPOS>SUBSTRUCTURE
     1  YFE      1

