@<TRIPOS>MOLECULE
2yfe_ligand_035
    48    49
SMALL
GAST_HUCK
****
This file was generated by PARSER (from files_GN.cpp)

@<TRIPOS>ATOM
      1 CAB        18.5633   22.2268   46.9991 C.3         1 YFE      -0.0403
      2 CAR        17.6532   21.5872   47.9487 C.2         1 YFE      -0.0856
      3 CAC        17.3697   22.2974   49.1975 C.3         1 YFE      -0.0403
      4 CAG        17.1132   20.3715   47.7264 C.2         1 YFE      -0.1025
      5 CAN        17.4598   19.4599   46.6320 C.3         1 YFE      -0.0201
      6 CAX        18.7935   18.7760   46.6645 C.ar        1 YFE       0.0155
      7 CAW        19.1661   18.0495   45.5059 C.ar        1 YFE       0.0822
      8 CAM        20.4235   17.4189   45.4274 C.ar        1 YFE      -0.0446
      9 OAQ        18.3504   17.9779   44.4013 O.3         1 YFE      -0.3273
     10 CAA        17.6074   16.7481   44.3170 C.3         1 YFE       0.0581
     11 CAU        19.6991   18.7697   47.7637 C.ar        1 YFE       0.0914
     12 OAF        19.3511   19.3564   48.9426 O.3         1 YFE      -0.3377
     13 CAY        20.9524   18.1128   47.6901 C.ar        1 YFE       0.0231
     14 CAS        21.8450   18.2234   48.7834 C.2         1 YFE       0.0456
     15 OAE        22.4703   19.3957   49.0222 O.co2       1 YFE      -0.5694
     16 OAD        21.7688   17.3279   49.7933 O.co2       1 YFE      -0.5694
     17 CAV        21.3221   17.3949   46.5177 C.ar        1 YFE      -0.0494
     18 CAP        22.6657   16.7275   46.3758 C.3         1 YFE      -0.0147
     19 CAO        22.7507   15.4742   45.4433 C.3         1 YFE      -0.0100
     20 CAT        24.0601   14.7947   45.2689 C.ar        1 YFE      -0.0411
     21 CAK        25.3085   15.4707   45.3579 C.ar        1 YFE      -0.0602
     22 CAI        26.5040   14.8204   45.0145 C.ar        1 YFE      -0.0686
     23 CAH        26.4837   13.4839   44.5823 C.ar        1 YFE      -0.0687
     24 CAJ        25.2618   12.7954   44.4867 C.ar        1 YFE      -0.0686
     25 CAL        24.0628   13.4487   44.8172 C.ar        1 YFE      -0.0602
     26 H1         18.8893   23.2144   47.3331 H           1 YFE       0.0377
     27 H2         18.0679   22.3552   46.0342 H           1 YFE       0.0377
     28 H3         19.4567   21.6150   46.8611 H           1 YFE       0.0377
     29 H4         16.7089   21.7456   49.8691 H           1 YFE       0.0377
     30 H5         16.9008   23.2573   48.9780 H           1 YFE       0.0377
     31 H6         18.3051   22.4763   49.7324 H           1 YFE       0.0377
     32 H7         16.4513   20.0190   48.3783 H           1 YFE       0.0254
     33 H8         17.3584   20.0202   45.6976 H           1 YFE       0.0443
     34 H9         16.7032   18.6709   46.5983 H           1 YFE       0.0443
     35 H10        20.6621   16.9787   44.5404 H           1 YFE       0.0383
     36 H11        16.9788   16.7840   43.4274 H           1 YFE       0.0576
     37 H12        16.9586   16.6199   45.1864 H           1 YFE       0.0576
     38 H13        18.2676   15.8807   44.2266 H           1 YFE       0.0576
     39 H14        19.1154   18.6005   49.5214 H           1 YFE       0.2469
     40 H15        23.0193   16.3922   47.3508 H           1 YFE       0.0441
     41 H16        23.3621   17.4920   46.0381 H           1 YFE       0.0441
     42 H17        22.4451   15.7531   44.4348 H           1 YFE       0.0448
     43 H18        22.0272   14.7494   45.8250 H           1 YFE       0.0448
     44 H19        25.3555   16.4507   45.6360 H           1 YFE       0.0557
     45 H20        27.3883   15.3280   45.0572 H           1 YFE       0.0599
     46 H21        27.3575   13.0181   44.3231 H           1 YFE       0.0559
     47 H22        25.2460   11.8247   44.1669 H           1 YFE       0.0599
     48 H23        23.1774   12.9403   44.7124 H           1 YFE       0.0557
@<TRIPOS>BOND
     1     1     2   1
     2     2     3   1
     3     2     4   2
     4     4     5   1
     5     5     6   1
     6     6     7  ar
     7     6    11  ar
     8     7     8  ar
     9     7     9   1
    10     8    17  ar
    11     9    10   1
    12    11    12   1
    13    11    13  ar
    14    13    14   1
    15    13    17  ar
    16    14    15  ar
    17    14    16  ar
    18    17    18   1
    19    18    19   1
    20    19    20   1
    21    20    21  ar
    22    20    25  ar
    23    21    22  ar
    24    22    23  ar
    25    23    24  ar
    26    24    25  ar
    27     1    26   1
    28     1    27   1
    29     1    28   1
    30     3    29   1
    31     3    30   1
    32     3    31   1
    33     4    32   1
    34     5    33   1
    35     5    34   1
    36     8    35   1
    37    10    36   1
    38    10    37   1
    39    10    38   1
    40    12    39   1
    41    18    40   1
    42    18    41   1
    43    19    42   1
    44    19    43   1
    45    21    44   1
    46    22    45   1
    47    23    46   1
    48    24    47   1
    49    25    48   1
@<TRIPOS>SUBSTRUCTURE
     1  YFE      1

