@<TRIPOS>MOLECULE
2yfe_ligand_040
    48    49
SMALL
GAST_HUCK
****
This file was generated by PARSER (from files_GN.cpp)

@<TRIPOS>ATOM
      1 CAB        18.1172   23.4017   47.5574 C.3         1 YFE      -0.0403
      2 CAR        19.4792   23.0617   47.1499 C.2         1 YFE      -0.0856
      3 CAC        20.3094   24.1335   46.6016 C.3         1 YFE      -0.0403
      4 CAG        19.9736   21.8078   47.2755 C.2         1 YFE      -0.1025
      5 CAN        19.3180   20.6578   47.9016 C.3         1 YFE      -0.0201
      6 CAX        19.7542   19.3447   47.3277 C.ar        1 YFE       0.0155
      7 CAW        18.8505   18.5386   46.5913 C.ar        1 YFE       0.0822
      8 CAM        19.2999   17.3534   45.9816 C.ar        1 YFE      -0.0446
      9 OAQ        17.5626   18.9485   46.3252 O.3         1 YFE      -0.3273
     10 CAA        16.5377   18.1663   46.9619 C.3         1 YFE       0.0581
     11 CAU        21.0882   18.8865   47.4874 C.ar        1 YFE       0.0914
     12 OAF        21.9499   19.6267   48.2465 O.3         1 YFE      -0.3377
     13 CAY        21.5589   17.7183   46.8248 C.ar        1 YFE       0.0231
     14 CAS        22.9275   17.3698   46.9437 C.2         1 YFE       0.0456
     15 OAE        23.6237   16.8862   45.8907 O.co2       1 YFE      -0.5694
     16 OAD        23.6168   17.5801   48.0893 O.co2       1 YFE      -0.5694
     17 CAV        20.6492   16.9452   46.0455 C.ar        1 YFE      -0.0494
     18 CAP        21.0080   15.7002   45.2837 C.3         1 YFE      -0.0147
     19 CAO        20.9876   15.8687   43.7334 C.3         1 YFE      -0.0100
     20 CAT        19.7734   16.5672   43.2456 C.ar        1 YFE      -0.0411
     21 CAK        19.8007   17.9507   42.9546 C.ar        1 YFE      -0.0602
     22 CAI        18.6083   18.6503   42.6730 C.ar        1 YFE      -0.0686
     23 CAH        17.3821   17.9664   42.6359 C.ar        1 YFE      -0.0687
     24 CAJ        17.3449   16.5874   42.8957 C.ar        1 YFE      -0.0686
     25 CAL        18.5344   15.8891   43.1993 C.ar        1 YFE      -0.0602
     26 H1         17.8979   24.4636   47.4298 H           1 YFE       0.0377
     27 H2         17.9689   23.1589   48.6119 H           1 YFE       0.0377
     28 H3         17.3979   22.8432   46.9545 H           1 YFE       0.0377
     29 H4         21.3248   23.8171   46.3545 H           1 YFE       0.0377
     30 H5         20.3848   24.9447   47.3276 H           1 YFE       0.0377
     31 H6         19.8541   24.5205   45.6892 H           1 YFE       0.0377
     32 H7         20.9157   21.6628   46.9757 H           1 YFE       0.0254
     33 H8         18.2373   20.7581   47.8397 H           1 YFE       0.0443
     34 H9         19.5521   20.6674   48.9667 H           1 YFE       0.0443
     35 H10        18.6240   16.8047   45.4434 H           1 YFE       0.0383
     36 H11        15.5795   18.6127   46.7078 H           1 YFE       0.0576
     37 H12        16.6428   18.1707   48.0492 H           1 YFE       0.0576
     38 H13        16.5436   17.1377   46.5972 H           1 YFE       0.0576
     39 H14        21.6515   19.4855   49.1805 H           1 YFE       0.2469
     40 H15        20.3227   14.8901   45.5607 H           1 YFE       0.0441
     41 H16        21.9997   15.3372   45.5711 H           1 YFE       0.0441
     42 H17        21.0511   14.8797   43.2648 H           1 YFE       0.0448
     43 H18        21.8891   16.4072   43.4309 H           1 YFE       0.0448
     44 H19        20.6777   18.4763   42.9953 H           1 YFE       0.0557
     45 H20        18.6365   19.6608   42.5244 H           1 YFE       0.0599
     46 H21        16.5198   18.4712   42.4327 H           1 YFE       0.0559
     47 H22        16.4498   16.0869   42.8873 H           1 YFE       0.0599
     48 H23        18.4814   14.8915   43.4089 H           1 YFE       0.0557
@<TRIPOS>BOND
     1     1     2   1
     2     2     3   1
     3     2     4   2
     4     4     5   1
     5     5     6   1
     6     6     7  ar
     7     6    11  ar
     8     7     8  ar
     9     7     9   1
    10     8    17  ar
    11     9    10   1
    12    11    12   1
    13    11    13  ar
    14    13    14   1
    15    13    17  ar
    16    14    15  ar
    17    14    16  ar
    18    17    18   1
    19    18    19   1
    20    19    20   1
    21    20    21  ar
    22    20    25  ar
    23    21    22  ar
    24    22    23  ar
    25    23    24  ar
    26    24    25  ar
    27     1    26   1
    28     1    27   1
    29     1    28   1
    30     3    29   1
    31     3    30   1
    32     3    31   1
    33     4    32   1
    34     5    33   1
    35     5    34   1
    36     8    35   1
    37    10    36   1
    38    10    37   1
    39    10    38   1
    40    12    39   1
    41    18    40   1
    42    18    41   1
    43    19    42   1
    44    19    43   1
    45    21    44   1
    46    22    45   1
    47    23    46   1
    48    24    47   1
    49    25    48   1
@<TRIPOS>SUBSTRUCTURE
     1  YFE      1

