@<TRIPOS>MOLECULE
2yfe_ligand_024
    48    49
SMALL
GAST_HUCK
****
This file was generated by PARSER (from files_GN.cpp)

@<TRIPOS>ATOM
      1 CAB        24.4643   24.5166   44.0987 C.3         1 YFE      -0.0403
      2 CAR        24.7731   25.1389   45.3861 C.2         1 YFE      -0.0856
      3 CAC        25.7646   26.2169   45.4018 C.3         1 YFE      -0.0403
      4 CAG        24.2282   24.7049   46.5469 C.2         1 YFE      -0.1025
      5 CAN        23.3275   23.5697   46.7276 C.3         1 YFE      -0.0201
      6 CAX        23.8821   22.2036   47.0357 C.ar        1 YFE       0.0155
      7 CAW        25.2426   21.8215   46.8804 C.ar        1 YFE       0.0822
      8 CAM        25.6407   20.5079   47.2235 C.ar        1 YFE      -0.0446
      9 OAQ        26.1348   22.7479   46.3926 O.3         1 YFE      -0.3273
     10 CAA        27.4357   22.3900   45.9051 C.3         1 YFE       0.0581
     11 CAU        22.9627   21.2334   47.5232 C.ar        1 YFE       0.0914
     12 OAF        21.6562   21.5695   47.7285 O.3         1 YFE      -0.3377
     13 CAY        23.3680   19.9065   47.8190 C.ar        1 YFE       0.0231
     14 CAS        22.4273   19.0502   48.4152 C.2         1 YFE       0.0456
     15 OAE        22.2079   19.1547   49.7442 O.co2       1 YFE      -0.5694
     16 OAD        21.8883   18.0183   47.7285 O.co2       1 YFE      -0.5694
     17 CAV        24.7179   19.5129   47.6269 C.ar        1 YFE      -0.0494
     18 CAP        25.2291   18.1147   47.8217 C.3         1 YFE      -0.0147
     19 CAO        26.0597   17.5687   46.5984 C.3         1 YFE      -0.0100
     20 CAT        25.8507   16.2141   45.9909 C.ar        1 YFE      -0.0411
     21 CAK        24.8630   15.2753   46.3920 C.ar        1 YFE      -0.0602
     22 CAI        24.6991   14.0494   45.7117 C.ar        1 YFE      -0.0686
     23 CAH        25.5216   13.7301   44.6188 C.ar        1 YFE      -0.0687
     24 CAJ        26.5142   14.6327   44.2065 C.ar        1 YFE      -0.0686
     25 CAL        26.6742   15.8549   44.8867 C.ar        1 YFE      -0.0602
     26 H1         25.0225   24.9765   43.2796 H           1 YFE       0.0377
     27 H2         23.4017   24.6177   43.8655 H           1 YFE       0.0377
     28 H3         24.7202   23.4551   44.1214 H           1 YFE       0.0377
     29 H4         25.9338   26.6424   46.3946 H           1 YFE       0.0377
     30 H5         25.4507   27.0325   44.7486 H           1 YFE       0.0377
     31 H6         26.7206   25.8340   45.0392 H           1 YFE       0.0377
     32 H7         24.5243   25.1431   47.3883 H           1 YFE       0.0254
     33 H8         22.6717   23.4792   45.8534 H           1 YFE       0.0443
     34 H9         22.6651   23.8597   47.5553 H           1 YFE       0.0443
     35 H10        26.6335   20.2478   47.1418 H           1 YFE       0.0383
     36 H11        27.8689   23.2663   45.4188 H           1 YFE       0.0576
     37 H12        27.3824   21.5780   45.1701 H           1 YFE       0.0576
     38 H13        28.0905   22.1047   46.7340 H           1 YFE       0.0576
     39 H14        21.3087   21.8157   46.8400 H           1 YFE       0.2469
     40 H15        24.4140   17.4409   48.0293 H           1 YFE       0.0441
     41 H16        25.8630   18.1251   48.7072 H           1 YFE       0.0441
     42 H17        27.1194   17.6202   46.8814 H           1 YFE       0.0448
     43 H18        25.9356   18.2613   45.7586 H           1 YFE       0.0448
     44 H19        24.2329   15.4639   47.1699 H           1 YFE       0.0557
     45 H20        23.9659   13.3950   46.0056 H           1 YFE       0.0599
     46 H21        25.3864   12.8504   44.1148 H           1 YFE       0.0559
     47 H22        27.1067   14.4097   43.4053 H           1 YFE       0.0599
     48 H23        27.3998   16.5010   44.5563 H           1 YFE       0.0557
@<TRIPOS>BOND
     1     1     2   1
     2     2     3   1
     3     2     4   2
     4     4     5   1
     5     5     6   1
     6     6     7  ar
     7     6    11  ar
     8     7     8  ar
     9     7     9   1
    10     8    17  ar
    11     9    10   1
    12    11    12   1
    13    11    13  ar
    14    13    14   1
    15    13    17  ar
    16    14    15  ar
    17    14    16  ar
    18    17    18   1
    19    18    19   1
    20    19    20   1
    21    20    21  ar
    22    20    25  ar
    23    21    22  ar
    24    22    23  ar
    25    23    24  ar
    26    24    25  ar
    27     1    26   1
    28     1    27   1
    29     1    28   1
    30     3    29   1
    31     3    30   1
    32     3    31   1
    33     4    32   1
    34     5    33   1
    35     5    34   1
    36     8    35   1
    37    10    36   1
    38    10    37   1
    39    10    38   1
    40    12    39   1
    41    18    40   1
    42    18    41   1
    43    19    42   1
    44    19    43   1
    45    21    44   1
    46    22    45   1
    47    23    46   1
    48    24    47   1
    49    25    48   1
@<TRIPOS>SUBSTRUCTURE
     1  YFE      1

