@<TRIPOS>MOLECULE
2yfe_ligand_003
    48    49
SMALL
GAST_HUCK
****
This file was generated by PARSER (from files_GN.cpp)

@<TRIPOS>ATOM
      1 CAB        27.4042   11.8612   43.9270 C.3         1 YFE      -0.0403
      2 CAR        26.1259   11.7976   44.6303 C.2         1 YFE      -0.0856
      3 CAC        25.5202   10.4823   44.8371 C.3         1 YFE      -0.0403
      4 CAG        25.5170   12.9106   45.1024 C.2         1 YFE      -0.1025
      5 CAN        25.8788   14.2946   44.7776 C.3         1 YFE      -0.0201
      6 CAX        24.9820   15.3392   45.3749 C.ar        1 YFE       0.0155
      7 CAW        25.5040   16.4065   46.1540 C.ar        1 YFE       0.0822
      8 CAM        24.6106   17.2736   46.8208 C.ar        1 YFE      -0.0446
      9 OAQ        26.8562   16.6033   46.3053 O.3         1 YFE      -0.3273
     10 CAA        27.3862   17.8796   45.8707 C.3         1 YFE       0.0581
     11 CAU        23.5792   15.2726   45.1754 C.ar        1 YFE       0.0914
     12 OAF        23.0893   14.3238   44.3289 O.3         1 YFE      -0.3377
     13 CAY        22.6952   16.2043   45.7724 C.ar        1 YFE       0.0231
     14 CAS        21.3064   16.0830   45.5127 C.2         1 YFE       0.0456
     15 OAE        20.7198   16.9869   44.6947 O.co2       1 YFE      -0.5694
     16 OAD        20.6624   14.9076   45.7010 O.co2       1 YFE      -0.5694
     17 CAV        23.2180   17.2490   46.5976 C.ar        1 YFE      -0.0494
     18 CAP        22.3204   18.3045   47.1905 C.3         1 YFE      -0.0147
     19 CAO        22.9636   19.6504   47.6437 C.3         1 YFE      -0.0100
     20 CAT        22.0706   20.8391   47.8478 C.ar        1 YFE      -0.0411
     21 CAK        22.6844   22.0756   48.1647 C.ar        1 YFE      -0.0602
     22 CAI        21.9301   23.2575   48.3095 C.ar        1 YFE      -0.0686
     23 CAH        20.5367   23.2187   48.1288 C.ar        1 YFE      -0.0687
     24 CAJ        19.9009   22.0057   47.8251 C.ar        1 YFE      -0.0686
     25 CAL        20.6580   20.8229   47.7027 C.ar        1 YFE      -0.0602
     26 H1         27.7626   10.8741   43.6279 H           1 YFE       0.0377
     27 H2         28.1585   12.2997   44.5828 H           1 YFE       0.0377
     28 H3         27.3147   12.4675   43.0251 H           1 YFE       0.0377
     29 H4         24.5398   10.5243   45.3186 H           1 YFE       0.0377
     30 H5         26.1733    9.8683   45.4575 H           1 YFE       0.0377
     31 H6         25.3863    9.9836   43.8760 H           1 YFE       0.0377
     32 H7         24.7250   12.7859   45.6873 H           1 YFE       0.0254
     33 H8         25.8439   14.4207   43.6884 H           1 YFE       0.0443
     34 H9         26.9170   14.4485   45.0880 H           1 YFE       0.0443
     35 H10        25.0021   17.9605   47.4735 H           1 YFE       0.0383
     36 H11        28.4693   17.8742   46.0144 H           1 YFE       0.0576
     37 H12        26.9872   18.7064   46.4642 H           1 YFE       0.0576
     38 H13        27.1850   18.0655   44.8118 H           1 YFE       0.0576
     39 H14        22.5689   13.7108   44.8953 H           1 YFE       0.2469
     40 H15        21.7743   17.8654   48.0274 H           1 YFE       0.0441
     41 H16        21.5999   18.5716   46.4203 H           1 YFE       0.0441
     42 H17        23.6895   19.9394   46.8791 H           1 YFE       0.0448
     43 H18        23.5090   19.4760   48.5715 H           1 YFE       0.0448
     44 H19        23.7012   22.1352   48.2792 H           1 YFE       0.0557
     45 H20        22.3927   24.1364   48.5291 H           1 YFE       0.0599
     46 H21        19.9882   24.0812   48.2170 H           1 YFE       0.0559
     47 H22        18.8887   21.9813   47.6895 H           1 YFE       0.0599
     48 H23        20.1622   19.9612   47.4971 H           1 YFE       0.0557
@<TRIPOS>BOND
     1     1     2   1
     2     2     3   1
     3     2     4   2
     4     4     5   1
     5     5     6   1
     6     6     7  ar
     7     6    11  ar
     8     7     8  ar
     9     7     9   1
    10     8    17  ar
    11     9    10   1
    12    11    12   1
    13    11    13  ar
    14    13    14   1
    15    13    17  ar
    16    14    15  ar
    17    14    16  ar
    18    17    18   1
    19    18    19   1
    20    19    20   1
    21    20    21  ar
    22    20    25  ar
    23    21    22  ar
    24    22    23  ar
    25    23    24  ar
    26    24    25  ar
    27     1    26   1
    28     1    27   1
    29     1    28   1
    30     3    29   1
    31     3    30   1
    32     3    31   1
    33     4    32   1
    34     5    33   1
    35     5    34   1
    36     8    35   1
    37    10    36   1
    38    10    37   1
    39    10    38   1
    40    12    39   1
    41    18    40   1
    42    18    41   1
    43    19    42   1
    44    19    43   1
    45    21    44   1
    46    22    45   1
    47    23    46   1
    48    24    47   1
    49    25    48   1
@<TRIPOS>SUBSTRUCTURE
     1  YFE      1

