@<TRIPOS>MOLECULE
2yfe_ligand_016
    48    49
SMALL
GAST_HUCK
****
This file was generated by PARSER (from files_GN.cpp)

@<TRIPOS>ATOM
      1 CAB        26.0181   13.4404   44.1013 C.3         1 YFE      -0.0403
      2 CAR        26.2022   14.8115   44.5732 C.2         1 YFE      -0.0856
      3 CAC        27.4813   15.4674   44.2798 C.3         1 YFE      -0.0403
      4 CAG        25.2242   15.4820   45.2319 C.2         1 YFE      -0.1025
      5 CAN        23.9267   14.9574   45.6595 C.3         1 YFE      -0.0201
      6 CAX        22.9045   15.9875   46.0370 C.ar        1 YFE       0.0155
      7 CAW        21.5501   15.8410   45.6375 C.ar        1 YFE       0.0822
      8 CAM        20.5859   16.7800   46.0438 C.ar        1 YFE      -0.0446
      9 OAQ        21.1075   14.7101   44.9983 O.3         1 YFE      -0.3273
     10 CAA        21.0891   14.8076   43.5635 C.3         1 YFE       0.0581
     11 CAU        23.2516   17.0972   46.8509 C.ar        1 YFE       0.0914
     12 OAF        24.5033   17.1818   47.3849 O.3         1 YFE      -0.3377
     13 CAY        22.3046   18.1031   47.1523 C.ar        1 YFE       0.0231
     14 CAS        22.7638   19.2725   47.7993 C.2         1 YFE       0.0456
     15 OAE        23.7989   19.9687   47.2760 O.co2       1 YFE      -0.5694
     16 OAD        22.2530   19.6586   48.9893 O.co2       1 YFE      -0.5694
     17 CAV        20.9413   17.9404   46.7711 C.ar        1 YFE      -0.0494
     18 CAP        19.9201   18.9680   47.1479 C.3         1 YFE      -0.0147
     19 CAO        18.5697   19.0420   46.3743 C.3         1 YFE      -0.0100
     20 CAT        17.6976   20.2008   46.7386 C.ar        1 YFE      -0.0411
     21 CAK        18.2321   21.5008   46.9227 C.ar        1 YFE      -0.0602
     22 CAI        17.4066   22.5852   47.2782 C.ar        1 YFE      -0.0686
     23 CAH        16.0205   22.3992   47.3949 C.ar        1 YFE      -0.0687
     24 CAJ        15.4616   21.1315   47.1697 C.ar        1 YFE      -0.0686
     25 CAL        16.2932   20.0370   46.8523 C.ar        1 YFE      -0.0602
     26 H1         26.8922   13.0477   43.5827 H           1 YFE       0.0377
     27 H2         25.1861   13.4024   43.4050 H           1 YFE       0.0377
     28 H3         25.8080   12.7820   44.9392 H           1 YFE       0.0377
     29 H4         27.5402   16.4884   44.6646 H           1 YFE       0.0377
     30 H5         27.6407   15.5149   43.2022 H           1 YFE       0.0377
     31 H6         28.3016   14.9023   44.7238 H           1 YFE       0.0377
     32 H7         25.4104   16.4328   45.4965 H           1 YFE       0.0254
     33 H8         24.0862   14.3027   46.5205 H           1 YFE       0.0443
     34 H9         23.5390   14.3369   44.8503 H           1 YFE       0.0443
     35 H10        19.6162   16.5942   45.7972 H           1 YFE       0.0383
     36 H11        20.7758   13.8457   43.1600 H           1 YFE       0.0576
     37 H12        22.0821   15.0347   43.1687 H           1 YFE       0.0576
     38 H13        20.3803   15.5659   43.2239 H           1 YFE       0.0576
     39 H14        24.6976   16.2912   47.7394 H           1 YFE       0.2469
     40 H15        20.4070   19.9293   46.9953 H           1 YFE       0.0441
     41 H16        19.7191   18.8585   48.2177 H           1 YFE       0.0441
     42 H17        18.0310   18.1060   46.5473 H           1 YFE       0.0448
     43 H18        18.7773   19.1057   45.3042 H           1 YFE       0.0448
     44 H19        19.2298   21.6852   46.8106 H           1 YFE       0.0557
     45 H20        17.8190   23.5052   47.4400 H           1 YFE       0.0599
     46 H21        15.4195   23.1956   47.6269 H           1 YFE       0.0559
     47 H22        14.4491   21.0022   47.2295 H           1 YFE       0.0599
     48 H23        15.8609   19.1264   46.6814 H           1 YFE       0.0557
@<TRIPOS>BOND
     1     1     2   1
     2     2     3   1
     3     2     4   2
     4     4     5   1
     5     5     6   1
     6     6     7  ar
     7     6    11  ar
     8     7     8  ar
     9     7     9   1
    10     8    17  ar
    11     9    10   1
    12    11    12   1
    13    11    13  ar
    14    13    14   1
    15    13    17  ar
    16    14    15  ar
    17    14    16  ar
    18    17    18   1
    19    18    19   1
    20    19    20   1
    21    20    21  ar
    22    20    25  ar
    23    21    22  ar
    24    22    23  ar
    25    23    24  ar
    26    24    25  ar
    27     1    26   1
    28     1    27   1
    29     1    28   1
    30     3    29   1
    31     3    30   1
    32     3    31   1
    33     4    32   1
    34     5    33   1
    35     5    34   1
    36     8    35   1
    37    10    36   1
    38    10    37   1
    39    10    38   1
    40    12    39   1
    41    18    40   1
    42    18    41   1
    43    19    42   1
    44    19    43   1
    45    21    44   1
    46    22    45   1
    47    23    46   1
    48    24    47   1
    49    25    48   1
@<TRIPOS>SUBSTRUCTURE
     1  YFE      1

