@<TRIPOS>MOLECULE
2yge_ligand_023
    80    81
SMALL
GAST_HUCK
****
This file was generated by PARSER (from files_GN.cpp)

@<TRIPOS>ATOM
      1 C1         28.5505  -35.8260   -8.7370 C.2         1 GMY       0.0496
      2 C2         29.5702  -34.9922   -9.1988 C.2         1 GMY       0.1905
      3 C3         29.2946  -33.9347  -10.0520 C.2         1 GMY       0.1367
      4 C4         28.0416  -33.8128  -10.5404 C.2         1 GMY       0.0078
      5 C5         27.0398  -34.6568  -10.1492 C.2         1 GMY       0.1522
      6 C6         27.2959  -35.6607   -9.2346 C.2         1 GMY       0.1484
      7 C7         28.8732  -36.8986   -7.7712 C.3         1 GMY      -0.0163
      8 C8         29.3282  -36.4086   -6.3512 C.3         1 GMY      -0.0344
      9 C9         28.1696  -35.6774   -5.5865 C.3         1 GMY      -0.0200
     10 C10        28.5393  -34.7125   -4.4117 C.3         1 GMY       0.0859
     11 C11        27.2874  -34.0836   -3.7017 C.3         1 GMY       0.0868
     12 C12        26.5956  -32.8955   -4.4644 C.3         1 GMY      -0.0094
     13 C13        27.4645  -31.7134   -4.4715 C.2         1 GMY      -0.1006
     14 C14        27.8184  -30.9284   -5.5192 C.2         1 GMY      -0.0457
     15 C15        28.7392  -29.7899   -5.2982 C.3         1 GMY       0.1504
     16 C16        30.1444  -29.9687   -5.9638 C.3         1 GMY       0.1288
     17 C17        30.7739  -31.2319   -5.5515 C.2         1 GMY      -0.0424
     18 C18        31.1167  -32.2625   -6.3531 C.2         1 GMY      -0.0729
     19 C19        30.8593  -32.3235   -7.6836 C.2         1 GMY      -0.0656
     20 C20        31.7239  -32.6453   -8.6714 C.2         1 GMY       0.0245
     21 C21        31.3030  -32.5386   -9.9726 C.2         1 GMY       0.2316
     22 N22        30.2069  -33.0581  -10.5204 N.am        1 GMY      -0.2158
     23 O23        30.7307  -35.3786   -9.1361 O.2         1 GMY      -0.3575
     24 O24        25.9320  -34.5269  -10.6523 O.2         1 GMY      -0.3865
     25 O25        26.3413  -36.5870   -9.0040 O.3         1 GMY      -0.3151
     26 C26        25.2209  -36.1891   -8.1870 C.3         1 GMY       0.0602
     27 C27        29.8799  -37.6414   -5.5733 C.3         1 GMY      -0.0609
     28 O28        29.2857  -35.4216   -3.3949 O.3         1 GMY      -0.3771
     29 C29        30.5975  -34.9142   -3.0888 C.3         1 GMY       0.0369
     30 O30        26.3591  -35.1290   -3.3986 O.3         1 GMY      -0.3877
     31 C31        25.2321  -32.4786   -3.8386 C.3         1 GMY      -0.0567
     32 C32        27.2813  -31.1649   -6.8600 C.3         1 GMY      -0.0373
     33 O33        28.0195  -28.5844   -5.6241 O.3         1 GMY      -0.2436
     34 C34        28.1703  -27.5630   -6.5085 C.2         1 GMY       0.3194
     35 O35        29.1596  -27.5105   -7.4286 O.2         1 GMY      -0.3776
     36 N36        27.2685  -26.5729   -6.4858 N.am        1 GMY      -0.2762
     37 O37        30.9572  -28.8331   -5.5831 O.3         1 GMY      -0.3598
     38 C38        32.3531  -28.8627   -5.9386 C.3         1 GMY       0.0406
     39 C39        33.1287  -33.0138   -8.4542 C.3         1 GMY      -0.0273
     40 O40        31.8989  -31.7441  -10.6883 O.2         1 GMY      -0.3753
     41 H1         27.8292  -33.0830  -11.1879 H           1 GMY       0.0327
     42 H2         29.6599  -37.5124   -8.2202 H           1 GMY       0.0392
     43 H3         28.0325  -37.5795   -7.6231 H           1 GMY       0.0392
     44 H4         30.1541  -35.7056   -6.4745 H           1 GMY       0.0317
     45 H5         27.4688  -36.4371   -5.2331 H           1 GMY       0.0295
     46 H6         27.6378  -35.0585   -6.3071 H           1 GMY       0.0295
     47 H7         29.1298  -33.8973   -4.8442 H           1 GMY       0.0623
     48 H8         27.6160  -33.7023   -2.7293 H           1 GMY       0.0637
     49 H9         26.3736  -33.2377   -5.4739 H           1 GMY       0.0398
     50 H10        27.8086  -31.4509   -3.5733 H           1 GMY       0.0247
     51 H11        28.9504  -29.6631   -4.2304 H           1 GMY       0.0853
     52 H12        30.0037  -29.9264   -7.0432 H           1 GMY       0.0852
     53 H13        30.9826  -31.3297   -4.5841 H           1 GMY       0.0741
     54 H14        31.5377  -33.0562   -5.9302 H           1 GMY       0.0436
     55 H15        29.9271  -32.0846   -7.9426 H           1 GMY       0.0539
     56 H16        29.9962  -32.6970  -11.3995 H           1 GMY       0.2392
     57 H17        24.6357  -37.0828   -7.9689 H           1 GMY       0.0581
     58 H18        24.5767  -35.4857   -8.7194 H           1 GMY       0.0581
     59 H19        25.5284  -35.7482   -7.2385 H           1 GMY       0.0581
     60 H20        30.7249  -38.0788   -6.1069 H           1 GMY       0.0234
     61 H21        29.1102  -38.4076   -5.4680 H           1 GMY       0.0234
     62 H22        30.2304  -37.3762   -4.5799 H           1 GMY       0.0234
     63 H23        31.0436  -35.5370   -2.3122 H           1 GMY       0.0524
     64 H24        30.5409  -33.8870   -2.7200 H           1 GMY       0.0524
     65 H25        31.2378  -34.9535   -3.9755 H           1 GMY       0.0524
     66 H26        25.8387  -34.8069   -2.6350 H           1 GMY       0.2101
     67 H27        24.8109  -31.6199   -4.3672 H           1 GMY       0.0247
     68 H28        25.3477  -32.2157   -2.7834 H           1 GMY       0.0247
     69 H29        24.5100  -33.2943   -3.9169 H           1 GMY       0.0247
     70 H30        26.1913  -31.0951   -6.8393 H           1 GMY       0.0376
     71 H31        27.5642  -32.1576   -7.2155 H           1 GMY       0.0376
     72 H32        27.6431  -30.4379   -7.5897 H           1 GMY       0.0376
     73 H33        27.3377  -25.8337   -7.1120 H           1 GMY       0.1831
     74 H34        26.5432  -26.5918   -5.8397 H           1 GMY       0.1831
     75 H35        32.7646  -27.8653   -5.7851 H           1 GMY       0.0527
     76 H36        32.4991  -29.1340   -6.9863 H           1 GMY       0.0527
     77 H37        32.8966  -29.5633   -5.2981 H           1 GMY       0.0527
     78 H38        33.3960  -33.1226   -7.4023 H           1 GMY       0.0384
     79 H39        33.7844  -32.2507   -8.8791 H           1 GMY       0.0384
     80 H40        33.3423  -33.9659   -8.9457 H           1 GMY       0.0384
@<TRIPOS>BOND
     1     1     2   1
     2     1     6   2
     3     1     7   1
     4     2     3   1
     5     2    23   2
     6     3     4   2
     7     3    22   1
     8     4     5   1
     9     5     6   1
    10     5    24   2
    11     6    25   1
    12     7     8   1
    13     8     9   1
    14     8    27   1
    15     9    10   1
    16    10    11   1
    17    10    28   1
    18    11    12   1
    19    11    30   1
    20    12    13   1
    21    12    31   1
    22    13    14   2
    23    14    15   1
    24    14    32   1
    25    15    16   1
    26    15    33   1
    27    16    17   1
    28    16    37   1
    29    17    18   2
    30    18    19   1
    31    19    20   2
    32    20    21   1
    33    20    39   1
    34    21    22  am
    35    21    40   2
    36    25    26   1
    37    28    29   1
    38    33    34   1
    39    34    35   2
    40    34    36  am
    41    37    38   1
    42     4    41   1
    43     7    42   1
    44     7    43   1
    45     8    44   1
    46     9    45   1
    47     9    46   1
    48    10    47   1
    49    11    48   1
    50    12    49   1
    51    13    50   1
    52    15    51   1
    53    16    52   1
    54    17    53   1
    55    18    54   1
    56    19    55   1
    57    22    56   1
    58    26    57   1
    59    26    58   1
    60    26    59   1
    61    27    60   1
    62    27    61   1
    63    27    62   1
    64    29    63   1
    65    29    64   1
    66    29    65   1
    67    30    66   1
    68    31    67   1
    69    31    68   1
    70    31    69   1
    71    32    70   1
    72    32    71   1
    73    32    72   1
    74    36    73   1
    75    36    74   1
    76    38    75   1
    77    38    76   1
    78    38    77   1
    79    39    78   1
    80    39    79   1
    81    39    80   1
@<TRIPOS>SUBSTRUCTURE
     1  GMY      1

