@<TRIPOS>MOLECULE
2yge_ligand_009
    80    81
SMALL
GAST_HUCK
****
This file was generated by PARSER (from files_GN.cpp)

@<TRIPOS>ATOM
      1 C1         24.5783  -31.1603   -5.0236 C.2         1 GMY       0.0496
      2 C2         25.1455  -29.9140   -4.7802 C.2         1 GMY       0.1905
      3 C3         25.5492  -29.5520   -3.5090 C.2         1 GMY       0.1367
      4 C4         25.1218  -30.2988   -2.4662 C.2         1 GMY       0.0078
      5 C5         24.4003  -31.4407   -2.6700 C.2         1 GMY       0.1522
      6 C6         24.2181  -31.9255   -3.9521 C.2         1 GMY       0.1484
      7 C7         24.3841  -31.5982   -6.4235 C.3         1 GMY      -0.0163
      8 C8         25.7260  -31.8399   -7.2149 C.3         1 GMY      -0.0344
      9 C9         25.8389  -33.3043   -7.7554 C.3         1 GMY      -0.0200
     10 C10        27.2300  -33.7061   -8.3532 C.3         1 GMY       0.0859
     11 C11        27.6656  -35.1661   -7.9816 C.3         1 GMY       0.0868
     12 C12        28.0749  -35.3776   -6.4784 C.3         1 GMY      -0.0094
     13 C13        29.2200  -34.5426   -6.1027 C.2         1 GMY      -0.1006
     14 C14        29.3179  -33.6638   -5.0761 C.2         1 GMY      -0.0457
     15 C15        30.6243  -33.0281   -4.7862 C.3         1 GMY       0.1504
     16 C16        30.6695  -31.4687   -4.9375 C.3         1 GMY       0.1288
     17 C17        29.9855  -30.9732   -6.1326 C.2         1 GMY      -0.0424
     18 C18        28.9809  -30.0756   -6.1941 C.2         1 GMY      -0.0729
     19 C19        28.3592  -29.4804   -5.1370 C.2         1 GMY      -0.0656
     20 C20        27.8105  -28.2406   -5.0864 C.2         1 GMY       0.0245
     21 C21        27.2224  -27.8304   -3.9144 C.2         1 GMY       0.2316
     22 N22        26.2806  -28.4597   -3.2184 N.am        1 GMY      -0.2158
     23 O23        24.9613  -29.0113   -5.5870 O.2         1 GMY      -0.3575
     24 O24        23.8791  -31.9975   -1.7112 O.2         1 GMY      -0.3865
     25 O25        23.5779  -33.1045   -4.1138 O.3         1 GMY      -0.3151
     26 C26        24.4078  -34.2734   -3.9267 C.3         1 GMY       0.0602
     27 C27        25.9368  -30.8131   -8.3635 C.3         1 GMY      -0.0609
     28 O28        27.1277  -33.5168   -9.7893 O.3         1 GMY      -0.3771
     29 C29        28.3411  -33.5422  -10.5662 C.3         1 GMY       0.0369
     30 O30        26.6170  -36.0666   -8.3514 O.3         1 GMY      -0.3877
     31 C31        28.4316  -36.8650   -6.1876 C.3         1 GMY      -0.0567
     32 C32        28.1935  -33.3938   -4.1839 C.3         1 GMY      -0.0373
     33 O33        31.0449  -33.3418   -3.4494 O.3         1 GMY      -0.2436
     34 C34        30.7853  -34.4289   -2.6748 C.2         1 GMY       0.3194
     35 O35        29.9833  -35.4379   -3.0902 O.2         1 GMY      -0.3776
     36 N36        31.2890  -34.4820   -1.4319 N.am        1 GMY      -0.2762
     37 O37        32.0305  -30.9915   -5.0755 O.3         1 GMY      -0.3598
     38 C38        32.7435  -30.6418   -3.8762 C.3         1 GMY       0.0406
     39 C39        27.8312  -27.2671   -6.1832 C.3         1 GMY      -0.0273
     40 O40        27.6940  -26.8453   -3.3631 O.2         1 GMY      -0.3753
     41 H1         25.3527  -30.0362   -1.5338 H           1 GMY       0.0327
     42 H2         23.7778  -30.8425   -6.9282 H           1 GMY       0.0392
     43 H3         23.7676  -32.5007   -6.4685 H           1 GMY       0.0392
     44 H4         26.5640  -31.7031   -6.5287 H           1 GMY       0.0317
     45 H5         25.0548  -33.4688   -8.5042 H           1 GMY       0.0295
     46 H6         25.5969  -33.9709   -6.9271 H           1 GMY       0.0295
     47 H7         27.9877  -33.0195   -7.9630 H           1 GMY       0.0623
     48 H8         28.5305  -35.4391   -8.5922 H           1 GMY       0.0637
     49 H9         27.2059  -35.1601   -5.8569 H           1 GMY       0.0398
     50 H10        30.0278  -34.6824   -6.6686 H           1 GMY       0.0247
     51 H11        31.4074  -33.4299   -5.4348 H           1 GMY       0.0853
     52 H12        30.2231  -31.0295   -4.0436 H           1 GMY       0.0852
     53 H13        30.3247  -31.3207   -7.0017 H           1 GMY       0.0741
     54 H14        28.6310  -29.8707   -7.1003 H           1 GMY       0.0436
     55 H15        28.2650  -30.0502   -4.3245 H           1 GMY       0.0539
     56 H16        26.1362  -28.1019   -2.3270 H           1 GMY       0.2392
     57 H17        23.7831  -35.1592   -4.0623 H           1 GMY       0.0581
     58 H18        24.8397  -34.3119   -2.9192 H           1 GMY       0.0581
     59 H19        25.2151  -34.3069   -4.6615 H           1 GMY       0.0581
     60 H20        25.8022  -29.7943   -7.9995 H           1 GMY       0.0234
     61 H21        25.2234  -30.9987   -9.1651 H           1 GMY       0.0234
     62 H22        26.9414  -30.8898   -8.7773 H           1 GMY       0.0234
     63 H23        28.0808  -33.3161  -11.6042 H           1 GMY       0.0524
     64 H24        28.8228  -34.5254  -10.5438 H           1 GMY       0.0524
     65 H25        29.0488  -32.7792  -10.2192 H           1 GMY       0.0524
     66 H26        26.5173  -35.9675   -9.3224 H           1 GMY       0.2101
     67 H27        28.7000  -36.9919   -5.1327 H           1 GMY       0.0247
     68 H28        29.2690  -37.1972   -6.8070 H           1 GMY       0.0247
     69 H29        27.5704  -37.5090   -6.3898 H           1 GMY       0.0247
     70 H30        27.9137  -34.3108   -3.6625 H           1 GMY       0.0376
     71 H31        27.3387  -33.0184   -4.7437 H           1 GMY       0.0376
     72 H32        28.4295  -32.6482   -3.4280 H           1 GMY       0.0376
     73 H33        31.0604  -35.2266   -0.8501 H           1 GMY       0.1831
     74 H34        31.8670  -33.7709   -1.1015 H           1 GMY       0.1831
     75 H35        33.7354  -30.2904   -4.1620 H           1 GMY       0.0527
     76 H36        32.8617  -31.5005   -3.2144 H           1 GMY       0.0527
     77 H37        32.2343  -29.8346   -3.3430 H           1 GMY       0.0527
     78 H38        28.3311  -27.6214   -7.0819 H           1 GMY       0.0384
     79 H39        28.3481  -26.3573   -5.8719 H           1 GMY       0.0384
     80 H40        26.8086  -27.0033   -6.4570 H           1 GMY       0.0384
@<TRIPOS>BOND
     1     1     2   1
     2     1     6   2
     3     1     7   1
     4     2     3   1
     5     2    23   2
     6     3     4   2
     7     3    22   1
     8     4     5   1
     9     5     6   1
    10     5    24   2
    11     6    25   1
    12     7     8   1
    13     8     9   1
    14     8    27   1
    15     9    10   1
    16    10    11   1
    17    10    28   1
    18    11    12   1
    19    11    30   1
    20    12    13   1
    21    12    31   1
    22    13    14   2
    23    14    15   1
    24    14    32   1
    25    15    16   1
    26    15    33   1
    27    16    17   1
    28    16    37   1
    29    17    18   2
    30    18    19   1
    31    19    20   2
    32    20    21   1
    33    20    39   1
    34    21    22  am
    35    21    40   2
    36    25    26   1
    37    28    29   1
    38    33    34   1
    39    34    35   2
    40    34    36  am
    41    37    38   1
    42     4    41   1
    43     7    42   1
    44     7    43   1
    45     8    44   1
    46     9    45   1
    47     9    46   1
    48    10    47   1
    49    11    48   1
    50    12    49   1
    51    13    50   1
    52    15    51   1
    53    16    52   1
    54    17    53   1
    55    18    54   1
    56    19    55   1
    57    22    56   1
    58    26    57   1
    59    26    58   1
    60    26    59   1
    61    27    60   1
    62    27    61   1
    63    27    62   1
    64    29    63   1
    65    29    64   1
    66    29    65   1
    67    30    66   1
    68    31    67   1
    69    31    68   1
    70    31    69   1
    71    32    70   1
    72    32    71   1
    73    32    72   1
    74    36    73   1
    75    36    74   1
    76    38    75   1
    77    38    76   1
    78    38    77   1
    79    39    78   1
    80    39    79   1
    81    39    80   1
@<TRIPOS>SUBSTRUCTURE
     1  GMY      1

