@<TRIPOS>MOLECULE
2yge_ligand_059
    80    81
SMALL
GAST_HUCK
****
This file was generated by PARSER (from files_GN.cpp)

@<TRIPOS>ATOM
      1 C1         24.0411  -32.1294   -6.5906 C.2         1 GMY       0.0496
      2 C2         24.3319  -33.1560   -7.4827 C.2         1 GMY       0.1905
      3 C3         25.2119  -32.9575   -8.5272 C.2         1 GMY       0.1367
      4 C4         25.5968  -31.6963   -8.8216 C.2         1 GMY       0.0078
      5 C5         25.2277  -30.6461   -8.0223 C.2         1 GMY       0.1522
      6 C6         24.4705  -30.8691   -6.8896 C.2         1 GMY       0.1484
      7 C7         23.4290  -32.4465   -5.2896 C.3         1 GMY      -0.0163
      8 C8         24.4833  -32.8913   -4.2050 C.3         1 GMY      -0.0344
      9 C9         24.5470  -31.8849   -3.0078 C.3         1 GMY      -0.0200
     10 C10        25.7897  -31.9962   -2.0538 C.3         1 GMY       0.0859
     11 C11        26.6608  -30.6952   -1.9753 C.3         1 GMY       0.0868
     12 C12        27.5281  -30.3733   -3.2451 C.3         1 GMY      -0.0094
     13 C13        28.5454  -31.4066   -3.4830 C.2         1 GMY      -0.1006
     14 C14        28.9705  -31.9067   -4.6694 C.2         1 GMY      -0.0457
     15 C15        30.0552  -32.9198   -4.6909 C.3         1 GMY       0.1504
     16 C16        29.6964  -34.2767   -5.3804 C.3         1 GMY       0.1288
     17 C17        28.4743  -34.8699   -4.8277 C.2         1 GMY      -0.0424
     18 C18        27.3451  -35.1842   -5.4904 C.2         1 GMY      -0.0729
     19 C19        27.0767  -34.9084   -6.7934 C.2         1 GMY      -0.0656
     20 C20        26.3070  -35.6255   -7.6469 C.2         1 GMY       0.0245
     21 C21        26.1434  -35.1570   -8.9271 C.2         1 GMY       0.2316
     22 N22        25.7124  -33.9501   -9.2854 N.am        1 GMY      -0.2158
     23 O23        23.6048  -34.1423   -7.5254 O.2         1 GMY      -0.3575
     24 O24        25.6892  -29.5360   -8.2569 O.2         1 GMY      -0.3865
     25 O25        24.3094  -29.8580   -6.0138 O.3         1 GMY      -0.3151
     26 C26        23.2058  -28.9819   -6.3095 C.3         1 GMY       0.0602
     27 C27        24.2057  -34.3458   -3.7310 C.3         1 GMY      -0.0609
     28 O28        25.3878  -32.2739   -0.6939 O.3         1 GMY      -0.3771
     29 C29        25.2245  -33.6446   -0.2953 C.3         1 GMY       0.0369
     30 O30        25.8070  -29.5931   -1.6610 O.3         1 GMY      -0.3877
     31 C31        28.2477  -29.0005   -3.1019 C.3         1 GMY      -0.0567
     32 C32        28.4300  -31.4180   -5.9387 C.3         1 GMY      -0.0373
     33 O33        31.1763  -32.3034   -5.3548 O.3         1 GMY      -0.2436
     34 C34        31.9175  -31.2348   -4.9568 C.2         1 GMY       0.3194
     35 O35        31.6701  -30.5682   -3.8052 O.2         1 GMY      -0.3776
     36 N36        32.9157  -30.8181   -5.7455 N.am        1 GMY      -0.2762
     37 O37        30.8061  -35.1837   -5.2029 O.3         1 GMY      -0.3598
     38 C38        31.7586  -35.2724   -6.2797 C.3         1 GMY       0.0406
     39 C39        25.6695  -36.9055   -7.3305 C.3         1 GMY      -0.0273
     40 O40        26.5877  -35.8369   -9.8403 O.2         1 GMY      -0.3753
     41 H1         26.2170  -31.5292   -9.5827 H           1 GMY       0.0327
     42 H2         22.6677  -33.2190   -5.4279 H           1 GMY       0.0392
     43 H3         22.8468  -31.5939   -4.9337 H           1 GMY       0.0392
     44 H4         25.4793  -32.8964   -4.6578 H           1 GMY       0.0317
     45 H5         23.6290  -31.9848   -2.4246 H           1 GMY       0.0295
     46 H6         24.5211  -30.8777   -3.4277 H           1 GMY       0.0295
     47 H7         26.4487  -32.8010   -2.3910 H           1 GMY       0.0623
     48 H8         27.3479  -30.7968   -1.1256 H           1 GMY       0.0637
     49 H9         26.8458  -30.2978   -4.0934 H           1 GMY       0.0398
     50 H10        29.0238  -31.7134   -2.6662 H           1 GMY       0.0247
     51 H11        30.3721  -33.1643   -3.6703 H           1 GMY       0.0853
     52 H12        29.6092  -34.0780   -6.4483 H           1 GMY       0.0852
     53 H13        28.5001  -35.0913   -3.8576 H           1 GMY       0.0741
     54 H14        26.6279  -35.6084   -4.9522 H           1 GMY       0.0436
     55 H15        27.4600  -34.0571   -7.1341 H           1 GMY       0.0539
     56 H16        25.8690  -33.7161  -10.2171 H           1 GMY       0.2392
     57 H17        23.1409  -28.2410   -5.5121 H           1 GMY       0.0581
     58 H18        22.2575  -29.5238   -6.3466 H           1 GMY       0.0581
     59 H19        23.3575  -28.4526   -7.2531 H           1 GMY       0.0581
     60 H20        24.1933  -35.0238   -4.5856 H           1 GMY       0.0234
     61 H21        23.2376  -34.4087   -3.2293 H           1 GMY       0.0234
     62 H22        24.9775  -34.6824   -3.0408 H           1 GMY       0.0234
     63 H23        25.0116  -33.6667    0.7787 H           1 GMY       0.0524
     64 H24        26.1375  -34.2180   -0.4752 H           1 GMY       0.0524
     65 H25        24.3850  -34.1082   -0.8148 H           1 GMY       0.0524
     66 H26        25.2863  -29.4378   -2.4794 H           1 GMY       0.2101
     67 H27        28.8763  -28.7976   -3.9708 H           1 GMY       0.0247
     68 H28        28.8770  -28.9843   -2.2081 H           1 GMY       0.0247
     69 H29        27.5152  -28.1953   -3.0257 H           1 GMY       0.0247
     70 H30        28.5346  -30.3321   -6.0018 H           1 GMY       0.0376
     71 H31        27.3721  -31.6757   -6.0225 H           1 GMY       0.0376
     72 H32        28.9418  -31.8378   -6.8047 H           1 GMY       0.0376
     73 H33        33.4522  -30.0528   -5.4867 H           1 GMY       0.1831
     74 H34        33.0953  -31.2750   -6.5827 H           1 GMY       0.1831
     75 H35        32.5698  -35.9358   -5.9644 H           1 GMY       0.0527
     76 H36        32.1863  -34.2917   -6.5038 H           1 GMY       0.0527
     77 H37        31.3071  -35.6914   -7.1836 H           1 GMY       0.0527
     78 H38        25.8667  -37.2596   -6.3208 H           1 GMY       0.0384
     79 H39        26.0221  -37.6804   -8.0149 H           1 GMY       0.0384
     80 H40        24.5869  -36.8153   -7.4423 H           1 GMY       0.0384
@<TRIPOS>BOND
     1     1     2   1
     2     1     6   2
     3     1     7   1
     4     2     3   1
     5     2    23   2
     6     3     4   2
     7     3    22   1
     8     4     5   1
     9     5     6   1
    10     5    24   2
    11     6    25   1
    12     7     8   1
    13     8     9   1
    14     8    27   1
    15     9    10   1
    16    10    11   1
    17    10    28   1
    18    11    12   1
    19    11    30   1
    20    12    13   1
    21    12    31   1
    22    13    14   2
    23    14    15   1
    24    14    32   1
    25    15    16   1
    26    15    33   1
    27    16    17   1
    28    16    37   1
    29    17    18   2
    30    18    19   1
    31    19    20   2
    32    20    21   1
    33    20    39   1
    34    21    22  am
    35    21    40   2
    36    25    26   1
    37    28    29   1
    38    33    34   1
    39    34    35   2
    40    34    36  am
    41    37    38   1
    42     4    41   1
    43     7    42   1
    44     7    43   1
    45     8    44   1
    46     9    45   1
    47     9    46   1
    48    10    47   1
    49    11    48   1
    50    12    49   1
    51    13    50   1
    52    15    51   1
    53    16    52   1
    54    17    53   1
    55    18    54   1
    56    19    55   1
    57    22    56   1
    58    26    57   1
    59    26    58   1
    60    26    59   1
    61    27    60   1
    62    27    61   1
    63    27    62   1
    64    29    63   1
    65    29    64   1
    66    29    65   1
    67    30    66   1
    68    31    67   1
    69    31    68   1
    70    31    69   1
    71    32    70   1
    72    32    71   1
    73    32    72   1
    74    36    73   1
    75    36    74   1
    76    38    75   1
    77    38    76   1
    78    38    77   1
    79    39    78   1
    80    39    79   1
    81    39    80   1
@<TRIPOS>SUBSTRUCTURE
     1  GMY      1

