@<TRIPOS>MOLECULE
2yge_ligand_024
    80    81
SMALL
GAST_HUCK
****
This file was generated by PARSER (from files_GN.cpp)

@<TRIPOS>ATOM
      1 C1         25.7562  -35.5571   -7.0769 C.2         1 GMY       0.0496
      2 C2         25.5198  -34.3067   -6.5131 C.2         1 GMY       0.1905
      3 C3         25.0684  -33.2545   -7.2889 C.2         1 GMY       0.1367
      4 C4         25.0974  -33.3882   -8.6323 C.2         1 GMY       0.0078
      5 C5         25.4542  -34.5719   -9.2160 C.2         1 GMY       0.1522
      6 C6         25.7822  -35.6611   -8.4341 C.2         1 GMY       0.1484
      7 C7         25.9390  -36.7214   -6.1903 C.3         1 GMY      -0.0163
      8 C8         24.6149  -37.1730   -5.4670 C.3         1 GMY      -0.0344
      9 C9         23.7382  -38.0737   -6.4085 C.3         1 GMY      -0.0200
     10 C10        22.2881  -38.4556   -5.9610 C.3         1 GMY       0.0859
     11 C11        21.4186  -39.0257   -7.1398 C.3         1 GMY       0.0868
     12 C12        20.7935  -37.9551   -8.1070 C.3         1 GMY      -0.0094
     13 C13        19.8695  -37.0796   -7.3749 C.2         1 GMY      -0.1006
     14 C14        19.7520  -35.7321   -7.4167 C.2         1 GMY      -0.0457
     15 C15        18.8038  -35.0412   -6.5091 C.3         1 GMY       0.1504
     16 C16        19.5031  -34.0349   -5.5298 C.3         1 GMY       0.1288
     17 C17        20.4701  -34.7302   -4.6772 C.2         1 GMY      -0.0424
     18 C18        21.7929  -34.4900   -4.5755 C.2         1 GMY      -0.0729
     19 C19        22.4765  -33.5779   -5.3009 C.2         1 GMY      -0.0656
     20 C20        23.3837  -32.6868   -4.8250 C.2         1 GMY       0.0245
     21 C21        23.9426  -31.7976   -5.7018 C.2         1 GMY       0.2316
     22 N22        24.6339  -32.0780   -6.8045 N.am        1 GMY      -0.2158
     23 O23        25.9917  -34.0458   -5.4141 O.2         1 GMY      -0.3575
     24 O24        25.4064  -34.6647  -10.4362 O.2         1 GMY      -0.3865
     25 O25        25.9827  -36.8463   -9.0424 O.3         1 GMY      -0.3151
     26 C26        27.3346  -37.0615   -9.4907 C.3         1 GMY       0.0602
     27 C27        24.9610  -37.8386   -4.1055 C.3         1 GMY      -0.0609
     28 O28        22.3820  -39.4407   -4.9094 O.3         1 GMY      -0.3771
     29 C29        21.2719  -39.5826   -3.9967 C.3         1 GMY       0.0369
     30 O30        22.1716  -39.9940   -7.8723 O.3         1 GMY      -0.3877
     31 C31        20.0104  -38.6300   -9.2691 C.3         1 GMY      -0.0567
     32 C32        20.5171  -34.9503   -8.3869 C.3         1 GMY      -0.0373
     33 O33        17.8016  -34.4296   -7.3441 O.3         1 GMY      -0.2436
     34 C34        16.5651  -33.9709   -7.0067 C.2         1 GMY       0.3194
     35 O35        16.0848  -34.0361   -5.7457 O.2         1 GMY      -0.3776
     36 N36        15.7733  -33.4747   -7.9629 N.am        1 GMY      -0.2762
     37 O37        18.5159  -33.4193   -4.6815 O.3         1 GMY      -0.3598
     38 C38        18.8857  -32.1875   -4.0352 C.3         1 GMY       0.0406
     39 C39        23.7536  -32.5496   -3.4161 C.3         1 GMY      -0.0273
     40 O40        23.6517  -30.6196   -5.5700 O.2         1 GMY      -0.3753
     41 H1         24.8020  -32.6321   -9.2108 H           1 GMY       0.0327
     42 H2         26.7096  -36.4585   -5.4604 H           1 GMY       0.0392
     43 H3         26.3499  -37.5821   -6.7201 H           1 GMY       0.0392
     44 H4         24.0318  -36.2830   -5.2233 H           1 GMY       0.0317
     45 H5         24.2921  -38.9953   -6.6136 H           1 GMY       0.0295
     46 H6         23.6541  -37.5382   -7.3573 H           1 GMY       0.0295
     47 H7         21.8142  -37.5487   -5.5716 H           1 GMY       0.0623
     48 H8         20.5801  -39.5880   -6.7098 H           1 GMY       0.0637
     49 H9         21.6048  -37.3862   -8.5603 H           1 GMY       0.0398
     50 H10        19.2371  -37.5610   -6.7822 H           1 GMY       0.0247
     51 H11        18.2665  -35.7645   -5.8846 H           1 GMY       0.0853
     52 H12        19.9686  -33.2540   -6.1393 H           1 GMY       0.0852
     53 H13        20.1018  -35.4356   -4.0818 H           1 GMY       0.0741
     54 H14        22.3033  -35.0457   -3.9309 H           1 GMY       0.0436
     55 H15        22.2888  -33.5726   -6.2778 H           1 GMY       0.0539
     56 H16        24.7705  -31.3202   -7.3981 H           1 GMY       0.2392
     57 H17        27.3901  -38.0550   -9.9313 H           1 GMY       0.0581
     58 H18        28.0448  -37.0153   -8.6616 H           1 GMY       0.0581
     59 H19        27.6229  -36.3353  -10.2538 H           1 GMY       0.0581
     60 H20        25.5662  -37.1637   -3.4948 H           1 GMY       0.0234
     61 H21        25.5289  -38.7567   -4.2612 H           1 GMY       0.0234
     62 H22        24.0584  -38.0626   -3.5414 H           1 GMY       0.0234
     63 H23        21.5673  -40.2628   -3.1927 H           1 GMY       0.0524
     64 H24        20.3949  -40.0098   -4.4851 H           1 GMY       0.0524
     65 H25        21.0107  -38.6258   -3.5349 H           1 GMY       0.0524
     66 H26        22.3365  -40.7260   -7.2396 H           1 GMY       0.2101
     67 H27        19.5541  -37.8810   -9.9229 H           1 GMY       0.0247
     68 H28        19.2214  -39.2744   -8.8752 H           1 GMY       0.0247
     69 H29        20.6817  -39.2353   -9.8791 H           1 GMY       0.0247
     70 H30        20.3241  -35.3192   -9.3973 H           1 GMY       0.0376
     71 H31        21.5868  -35.0327   -8.1752 H           1 GMY       0.0376
     72 H32        20.2554  -33.8904   -8.3774 H           1 GMY       0.0376
     73 H33        14.8971  -33.1258   -7.7402 H           1 GMY       0.1831
     74 H34        16.0755  -33.4547   -8.8862 H           1 GMY       0.1831
     75 H35        18.0496  -31.8624   -3.4089 H           1 GMY       0.0527
     76 H36        19.0847  -31.4055   -4.7723 H           1 GMY       0.0527
     77 H37        19.7636  -32.3161   -3.3949 H           1 GMY       0.0527
     78 H38        23.2857  -33.2852   -2.7632 H           1 GMY       0.0384
     79 H39        23.4625  -31.5637   -3.0461 H           1 GMY       0.0384
     80 H40        24.8341  -32.6542   -3.3032 H           1 GMY       0.0384
@<TRIPOS>BOND
     1     1     2   1
     2     1     6   2
     3     1     7   1
     4     2     3   1
     5     2    23   2
     6     3     4   2
     7     3    22   1
     8     4     5   1
     9     5     6   1
    10     5    24   2
    11     6    25   1
    12     7     8   1
    13     8     9   1
    14     8    27   1
    15     9    10   1
    16    10    11   1
    17    10    28   1
    18    11    12   1
    19    11    30   1
    20    12    13   1
    21    12    31   1
    22    13    14   2
    23    14    15   1
    24    14    32   1
    25    15    16   1
    26    15    33   1
    27    16    17   1
    28    16    37   1
    29    17    18   2
    30    18    19   1
    31    19    20   2
    32    20    21   1
    33    20    39   1
    34    21    22  am
    35    21    40   2
    36    25    26   1
    37    28    29   1
    38    33    34   1
    39    34    35   2
    40    34    36  am
    41    37    38   1
    42     4    41   1
    43     7    42   1
    44     7    43   1
    45     8    44   1
    46     9    45   1
    47     9    46   1
    48    10    47   1
    49    11    48   1
    50    12    49   1
    51    13    50   1
    52    15    51   1
    53    16    52   1
    54    17    53   1
    55    18    54   1
    56    19    55   1
    57    22    56   1
    58    26    57   1
    59    26    58   1
    60    26    59   1
    61    27    60   1
    62    27    61   1
    63    27    62   1
    64    29    63   1
    65    29    64   1
    66    29    65   1
    67    30    66   1
    68    31    67   1
    69    31    68   1
    70    31    69   1
    71    32    70   1
    72    32    71   1
    73    32    72   1
    74    36    73   1
    75    36    74   1
    76    38    75   1
    77    38    76   1
    78    38    77   1
    79    39    78   1
    80    39    79   1
    81    39    80   1
@<TRIPOS>SUBSTRUCTURE
     1  GMY      1

