@<TRIPOS>MOLECULE
2yge_ligand_033
    80    81
SMALL
GAST_HUCK
****
This file was generated by PARSER (from files_GN.cpp)

@<TRIPOS>ATOM
      1 C1         25.3874  -32.5585   -3.9611 C.2         1 GMY       0.0496
      2 C2         26.4269  -32.3791   -4.8687 C.2         1 GMY       0.1905
      3 C3         27.5420  -33.1919   -4.8427 C.2         1 GMY       0.1367
      4 C4         27.7062  -34.0177   -3.7848 C.2         1 GMY       0.0078
      5 C5         26.7592  -34.1045   -2.8014 C.2         1 GMY       0.1522
      6 C6         25.5619  -33.4285   -2.9244 C.2         1 GMY       0.1484
      7 C7         24.1412  -31.7879   -4.1422 C.3         1 GMY      -0.0163
      8 C8         23.2986  -32.2228   -5.3974 C.3         1 GMY      -0.0344
      9 C9         22.5875  -33.5881   -5.1139 C.3         1 GMY      -0.0200
     10 C10        21.8160  -34.3278   -6.2536 C.3         1 GMY       0.0859
     11 C11        21.3149  -35.7665   -5.8591 C.3         1 GMY       0.0868
     12 C12        22.4101  -36.8902   -5.7696 C.3         1 GMY      -0.0094
     13 C13        23.0709  -37.1061   -7.0631 C.2         1 GMY      -0.1006
     14 C14        24.3944  -37.2240   -7.3226 C.2         1 GMY      -0.0457
     15 C15        24.8465  -37.5007   -8.7097 C.3         1 GMY       0.1504
     16 C16        25.6789  -36.3411   -9.3515 C.3         1 GMY       0.1288
     17 C17        24.9976  -35.0414   -9.2882 C.2         1 GMY      -0.0424
     18 C18        25.4011  -33.9367   -8.6340 C.2         1 GMY      -0.0729
     19 C19        26.5208  -33.8347   -7.8733 C.2         1 GMY      -0.0656
     20 C20        27.4138  -32.8180   -7.8659 C.2         1 GMY       0.0245
     21 C21        28.5173  -32.9215   -7.0583 C.2         1 GMY       0.2316
     22 N22        28.5352  -33.1547   -5.7474 N.am        1 GMY      -0.2158
     23 O23        26.5072  -31.3172   -5.4742 O.2         1 GMY      -0.3575
     24 O24        27.0368  -34.7057   -1.7697 O.2         1 GMY      -0.3865
     25 O25        24.6623  -33.4792   -1.9160 O.3         1 GMY      -0.3151
     26 C26        24.0137  -34.7486   -1.6673 C.3         1 GMY       0.0602
     27 C27        22.3335  -31.0659   -5.7851 C.3         1 GMY      -0.0609
     28 O28        20.7664  -33.5478   -6.8686 O.3         1 GMY      -0.3771
     29 C29        19.6897  -33.0055   -6.0846 C.3         1 GMY       0.0369
     30 O30        20.6104  -35.6762   -4.6181 O.3         1 GMY      -0.3877
     31 C31        21.8261  -38.2589   -5.3010 C.3         1 GMY      -0.0567
     32 C32        25.3909  -37.1418   -6.2501 C.3         1 GMY      -0.0373
     33 O33        25.6449  -38.6983   -8.7554 O.3         1 GMY      -0.2436
     34 C34        25.3552  -39.9210   -8.2396 C.2         1 GMY       0.3194
     35 O35        24.2001  -40.1690   -7.5818 O.2         1 GMY      -0.3776
     36 N36        26.2437  -40.9136   -8.3956 N.am        1 GMY      -0.2762
     37 O37        26.1424  -36.6434  -10.6906 O.3         1 GMY      -0.3598
     38 C38        25.2218  -36.9752  -11.7463 C.3         1 GMY       0.0406
     39 C39        27.3274  -31.6287   -8.7163 C.3         1 GMY      -0.0273
     40 O40        29.6126  -32.9570   -7.5994 O.2         1 GMY      -0.3753
     41 H1         28.5242  -34.5826   -3.7277 H           1 GMY       0.0327
     42 H2         24.4236  -30.7324   -4.2178 H           1 GMY       0.0392
     43 H3         23.4914  -31.8380   -3.2628 H           1 GMY       0.0392
     44 H4         23.9734  -32.3599   -6.2484 H           1 GMY       0.0317
     45 H5         21.9188  -33.4528   -4.2634 H           1 GMY       0.0295
     46 H6         23.3773  -34.2725   -4.8071 H           1 GMY       0.0295
     47 H7         22.5313  -34.4473   -7.0667 H           1 GMY       0.0623
     48 H8         20.5852  -36.0776   -6.6136 H           1 GMY       0.0637
     49 H9         23.1240  -36.5886   -5.0020 H           1 GMY       0.0398
     50 H10        22.4437  -37.2322   -7.8249 H           1 GMY       0.0247
     51 H11        23.9935  -37.6772   -9.3726 H           1 GMY       0.0853
     52 H12        26.6142  -36.2936   -8.7941 H           1 GMY       0.0852
     53 H13        24.1315  -34.9773   -9.7737 H           1 GMY       0.0741
     54 H14        24.8060  -33.1410   -8.6795 H           1 GMY       0.0436
     55 H15        26.6816  -34.5954   -7.2526 H           1 GMY       0.0539
     56 H16        29.4062  -33.3995   -5.3941 H           1 GMY       0.2392
     57 H17        23.2659  -34.5961   -0.8813 H           1 GMY       0.0581
     58 H18        24.7251  -35.5023   -1.3114 H           1 GMY       0.0581
     59 H19        23.4988  -35.1230   -2.5572 H           1 GMY       0.0581
     60 H20        22.9078  -30.1516   -5.9575 H           1 GMY       0.0234
     61 H21        21.6093  -30.8828   -4.9909 H           1 GMY       0.0234
     62 H22        21.7921  -31.2782   -6.7045 H           1 GMY       0.0234
     63 H23        19.0730  -32.3926   -6.7419 H           1 GMY       0.0524
     64 H24        20.0615  -32.3710   -5.2745 H           1 GMY       0.0524
     65 H25        19.0496  -33.7951   -5.6827 H           1 GMY       0.0524
     66 H26        20.0914  -36.5024   -4.5441 H           1 GMY       0.2101
     67 H27        22.5786  -39.0489   -5.3713 H           1 GMY       0.0247
     68 H28        20.9639  -38.5491   -5.9071 H           1 GMY       0.0247
     69 H29        21.5146  -38.2043   -4.2558 H           1 GMY       0.0247
     70 H30        25.1963  -37.9077   -5.4964 H           1 GMY       0.0376
     71 H31        25.3606  -36.1610   -5.7717 H           1 GMY       0.0376
     72 H32        26.4075  -37.2987   -6.6126 H           1 GMY       0.0376
     73 H33        26.0546  -41.7961   -8.0416 H           1 GMY       0.1831
     74 H34        27.0705  -40.7514   -8.8758 H           1 GMY       0.1831
     75 H35        25.7981  -37.1301  -12.6581 H           1 GMY       0.0527
     76 H36        24.5149  -36.1665  -11.9301 H           1 GMY       0.0527
     77 H37        24.6778  -37.8945  -11.5297 H           1 GMY       0.0527
     78 H38        26.4341  -31.5967   -9.3377 H           1 GMY       0.0384
     79 H39        28.1877  -31.5830   -9.3866 H           1 GMY       0.0384
     80 H40        27.3263  -30.7316   -8.0952 H           1 GMY       0.0384
@<TRIPOS>BOND
     1     1     2   1
     2     1     6   2
     3     1     7   1
     4     2     3   1
     5     2    23   2
     6     3     4   2
     7     3    22   1
     8     4     5   1
     9     5     6   1
    10     5    24   2
    11     6    25   1
    12     7     8   1
    13     8     9   1
    14     8    27   1
    15     9    10   1
    16    10    11   1
    17    10    28   1
    18    11    12   1
    19    11    30   1
    20    12    13   1
    21    12    31   1
    22    13    14   2
    23    14    15   1
    24    14    32   1
    25    15    16   1
    26    15    33   1
    27    16    17   1
    28    16    37   1
    29    17    18   2
    30    18    19   1
    31    19    20   2
    32    20    21   1
    33    20    39   1
    34    21    22  am
    35    21    40   2
    36    25    26   1
    37    28    29   1
    38    33    34   1
    39    34    35   2
    40    34    36  am
    41    37    38   1
    42     4    41   1
    43     7    42   1
    44     7    43   1
    45     8    44   1
    46     9    45   1
    47     9    46   1
    48    10    47   1
    49    11    48   1
    50    12    49   1
    51    13    50   1
    52    15    51   1
    53    16    52   1
    54    17    53   1
    55    18    54   1
    56    19    55   1
    57    22    56   1
    58    26    57   1
    59    26    58   1
    60    26    59   1
    61    27    60   1
    62    27    61   1
    63    27    62   1
    64    29    63   1
    65    29    64   1
    66    29    65   1
    67    30    66   1
    68    31    67   1
    69    31    68   1
    70    31    69   1
    71    32    70   1
    72    32    71   1
    73    32    72   1
    74    36    73   1
    75    36    74   1
    76    38    75   1
    77    38    76   1
    78    38    77   1
    79    39    78   1
    80    39    79   1
    81    39    80   1
@<TRIPOS>SUBSTRUCTURE
     1  GMY      1

