@<TRIPOS>MOLECULE
2yge_ligand_034
    80    81
SMALL
GAST_HUCK
****
This file was generated by PARSER (from files_GN.cpp)

@<TRIPOS>ATOM
      1 C1         23.1990  -37.5637   -7.0554 C.2         1 GMY       0.0496
      2 C2         23.5136  -36.6695   -8.0612 C.2         1 GMY       0.1905
      3 C3         22.7805  -35.5153   -8.2208 C.2         1 GMY       0.1367
      4 C4         21.5523  -35.4539   -7.6573 C.2         1 GMY       0.0078
      5 C5         21.1105  -36.4596   -6.8349 C.2         1 GMY       0.1522
      6 C6         21.9604  -37.4926   -6.4933 C.2         1 GMY       0.1484
      7 C7         24.2677  -38.4384   -6.5478 C.3         1 GMY      -0.0163
      8 C8         25.3185  -37.6508   -5.6833 C.3         1 GMY      -0.0344
      9 C9         24.7163  -37.3144   -4.2684 C.3         1 GMY      -0.0200
     10 C10        25.6581  -36.6433   -3.2183 C.3         1 GMY       0.0859
     11 C11        24.9065  -36.0290   -1.9776 C.3         1 GMY       0.0868
     12 C12        24.2428  -34.6224   -2.1872 C.3         1 GMY      -0.0094
     13 C13        25.1865  -33.5930   -2.6384 C.2         1 GMY      -0.1006
     14 C14        24.9597  -32.5774   -3.5076 C.2         1 GMY      -0.0457
     15 C15        26.0325  -31.6095   -3.8233 C.3         1 GMY       0.1504
     16 C16        26.5588  -31.7346   -5.2945 C.3         1 GMY       0.1288
     17 C17        27.1265  -33.0620   -5.5521 C.2         1 GMY      -0.0424
     18 C18        26.6882  -34.0047   -6.4098 C.2         1 GMY      -0.0729
     19 C19        25.6045  -33.9113   -7.2252 C.2         1 GMY      -0.0656
     20 C20        25.5450  -34.2966   -8.5212 C.2         1 GMY       0.0245
     21 C21        24.4044  -34.0403   -9.2306 C.2         1 GMY       0.2316
     22 N22        23.1774  -34.5021   -9.0027 N.am        1 GMY      -0.2158
     23 O23        24.1440  -37.0808   -9.0284 O.2         1 GMY      -0.3575
     24 O24        19.9883  -36.3808   -6.3453 O.2         1 GMY      -0.3865
     25 O25        21.6052  -38.3068   -5.4813 O.3         1 GMY      -0.3151
     26 C26        21.1931  -39.6212   -5.9108 C.3         1 GMY       0.0602
     27 C27        26.6880  -38.3939   -5.6613 C.3         1 GMY      -0.0609
     28 O28        26.7710  -37.4936   -2.8331 O.3         1 GMY      -0.3771
     29 C29        26.5740  -38.8188   -2.2953 C.3         1 GMY       0.0369
     30 O30        23.8932  -36.9327   -1.5218 O.3         1 GMY      -0.3877
     31 C31        23.5797  -34.1164   -0.8711 C.3         1 GMY      -0.0567
     32 C32        23.6445  -32.4076   -4.1454 C.3         1 GMY      -0.0373
     33 O33        25.5408  -30.2721   -3.6001 O.3         1 GMY      -0.2436
     34 C34        25.8042  -29.4279   -2.5648 C.2         1 GMY       0.3194
     35 O35        26.6152  -29.7795   -1.5428 O.2         1 GMY      -0.3776
     36 N36        25.2124  -28.2210   -2.5200 N.am        1 GMY      -0.2762
     37 O37        27.4719  -30.6847   -5.6877 O.3         1 GMY      -0.3598
     38 C38        28.6472  -30.3885   -4.9098 C.3         1 GMY       0.0406
     39 C39        26.6718  -34.8648   -9.2764 C.3         1 GMY      -0.0273
     40 O40        24.4717  -33.1947  -10.1078 O.2         1 GMY      -0.3753
     41 H1         20.9756  -34.6529   -7.8030 H           1 GMY       0.0327
     42 H2         24.7611  -38.9096   -7.4034 H           1 GMY       0.0392
     43 H3         23.8558  -39.2664   -5.9649 H           1 GMY       0.0392
     44 H4         25.5242  -36.6989   -6.1827 H           1 GMY       0.0317
     45 H5         24.3001  -38.2290   -3.8354 H           1 GMY       0.0295
     46 H6         23.8773  -36.6335   -4.4391 H           1 GMY       0.0295
     47 H7         26.1454  -35.8206   -3.7437 H           1 GMY       0.0623
     48 H8         25.6326  -35.9271   -1.1686 H           1 GMY       0.0637
     49 H9         23.4401  -34.7596   -2.9169 H           1 GMY       0.0398
     50 H10        26.0770  -33.6254   -2.2019 H           1 GMY       0.0247
     51 H11        26.8936  -31.7710   -3.1666 H           1 GMY       0.0853
     52 H12        25.7077  -31.5650   -5.9542 H           1 GMY       0.0852
     53 H13        27.9220  -33.3075   -5.0062 H           1 GMY       0.0741
     54 H14        27.1937  -34.8603   -6.4223 H           1 GMY       0.0436
     55 H15        24.7867  -33.5221   -6.8164 H           1 GMY       0.0539
     56 H16        22.4644  -34.0286   -9.4611 H           1 GMY       0.2392
     57 H17        20.8839  -40.1849   -5.0281 H           1 GMY       0.0581
     58 H18        22.0210  -40.1551   -6.3879 H           1 GMY       0.0581
     59 H19        20.3445  -39.5709   -6.6007 H           1 GMY       0.0581
     60 H20        26.9894  -38.6785   -6.6777 H           1 GMY       0.0234
     61 H21        26.6313  -39.2933   -5.0387 H           1 GMY       0.0234
     62 H22        27.4688  -37.7318   -5.2712 H           1 GMY       0.0234
     63 H23        27.5609  -39.2754   -2.1811 H           1 GMY       0.0524
     64 H24        25.9777  -39.4438   -2.9554 H           1 GMY       0.0524
     65 H25        26.1167  -38.7756   -1.3023 H           1 GMY       0.0524
     66 H26        24.3550  -37.6533   -1.0507 H           1 GMY       0.2101
     67 H27        23.1124  -33.1397   -1.0197 H           1 GMY       0.0247
     68 H28        24.3233  -34.0247   -0.0739 H           1 GMY       0.0247
     69 H29        22.8002  -34.8059   -0.5362 H           1 GMY       0.0247
     70 H30        22.8685  -32.2884   -3.3850 H           1 GMY       0.0376
     71 H31        23.4092  -33.2783   -4.7630 H           1 GMY       0.0376
     72 H32        23.6007  -31.5260   -4.7899 H           1 GMY       0.0376
     73 H33        25.3806  -27.6202   -1.7758 H           1 GMY       0.1831
     74 H34        24.5875  -27.9672   -3.2155 H           1 GMY       0.1831
     75 H35        29.2242  -29.6334   -5.4432 H           1 GMY       0.0527
     76 H36        29.2782  -31.2692   -4.7784 H           1 GMY       0.0527
     77 H37        28.3781  -29.9821   -3.9344 H           1 GMY       0.0527
     78 H38        27.5508  -35.0764   -8.6704 H           1 GMY       0.0384
     79 H39        26.9824  -34.1729  -10.0628 H           1 GMY       0.0384
     80 H40        26.3699  -35.8033   -9.7454 H           1 GMY       0.0384
@<TRIPOS>BOND
     1     1     2   1
     2     1     6   2
     3     1     7   1
     4     2     3   1
     5     2    23   2
     6     3     4   2
     7     3    22   1
     8     4     5   1
     9     5     6   1
    10     5    24   2
    11     6    25   1
    12     7     8   1
    13     8     9   1
    14     8    27   1
    15     9    10   1
    16    10    11   1
    17    10    28   1
    18    11    12   1
    19    11    30   1
    20    12    13   1
    21    12    31   1
    22    13    14   2
    23    14    15   1
    24    14    32   1
    25    15    16   1
    26    15    33   1
    27    16    17   1
    28    16    37   1
    29    17    18   2
    30    18    19   1
    31    19    20   2
    32    20    21   1
    33    20    39   1
    34    21    22  am
    35    21    40   2
    36    25    26   1
    37    28    29   1
    38    33    34   1
    39    34    35   2
    40    34    36  am
    41    37    38   1
    42     4    41   1
    43     7    42   1
    44     7    43   1
    45     8    44   1
    46     9    45   1
    47     9    46   1
    48    10    47   1
    49    11    48   1
    50    12    49   1
    51    13    50   1
    52    15    51   1
    53    16    52   1
    54    17    53   1
    55    18    54   1
    56    19    55   1
    57    22    56   1
    58    26    57   1
    59    26    58   1
    60    26    59   1
    61    27    60   1
    62    27    61   1
    63    27    62   1
    64    29    63   1
    65    29    64   1
    66    29    65   1
    67    30    66   1
    68    31    67   1
    69    31    68   1
    70    31    69   1
    71    32    70   1
    72    32    71   1
    73    32    72   1
    74    36    73   1
    75    36    74   1
    76    38    75   1
    77    38    76   1
    78    38    77   1
    79    39    78   1
    80    39    79   1
    81    39    80   1
@<TRIPOS>SUBSTRUCTURE
     1  GMY      1

