@<TRIPOS>MOLECULE
2yge_ligand_000
    80    81
SMALL
GAST_HUCK
****
This file was generated by PARSER (from files_GN.cpp)

@<TRIPOS>ATOM
      1 C1         26.9132  -34.5044   -7.7040 C.2         1 GMY       0.0496
      2 C2         27.9717  -34.1778   -6.8571 C.2         1 GMY       0.1905
      3 C3         28.4365  -32.8743   -6.7518 C.2         1 GMY       0.1367
      4 C4         27.9772  -31.9615   -7.6384 C.2         1 GMY       0.0078
      5 C5         27.0404  -32.2947   -8.5725 C.2         1 GMY       0.1522
      6 C6         26.4701  -33.5509   -8.5727 C.2         1 GMY       0.1484
      7 C7         26.3348  -35.8634   -7.6519 C.3         1 GMY      -0.0163
      8 C8         25.5962  -36.1995   -6.3019 C.3         1 GMY      -0.0344
      9 C9         24.1703  -35.5603   -6.2925 C.3         1 GMY      -0.0200
     10 C10        23.3089  -35.6055   -4.9931 C.3         1 GMY       0.0859
     11 C11        22.0325  -34.6882   -5.0677 C.3         1 GMY       0.0868
     12 C12        22.3050  -33.1523   -4.8534 C.3         1 GMY      -0.0094
     13 C13        22.8175  -32.8920   -3.5022 C.2         1 GMY      -0.1006
     14 C14        23.9289  -32.2095   -3.1390 C.2         1 GMY      -0.0457
     15 C15        24.3250  -32.1574   -1.7142 C.3         1 GMY       0.1504
     16 C16        25.7459  -32.7238   -1.3703 C.3         1 GMY       0.1288
     17 C17        26.0113  -34.0344   -1.9817 C.2         1 GMY      -0.0424
     18 C18        26.9655  -34.3582   -2.8735 C.2         1 GMY      -0.0729
     19 C19        27.8041  -33.5013   -3.5186 C.2         1 GMY      -0.0656
     20 C20        29.0687  -33.7661   -3.9198 C.2         1 GMY       0.0245
     21 C21        29.7283  -32.8535   -4.6835 C.2         1 GMY       0.2316
     22 N22        29.3871  -32.4459   -5.9009 N.am        1 GMY      -0.2158
     23 O23        28.7303  -35.0718   -6.4994 O.2         1 GMY      -0.3575
     24 O24        26.7342  -31.4590   -9.4138 O.2         1 GMY      -0.3865
     25 O25        25.5817  -33.7851   -9.5604 O.3         1 GMY      -0.3151
     26 C26        24.2236  -34.0418   -9.1533 C.3         1 GMY       0.0602
     27 C27        25.5683  -37.7371   -6.0577 C.3         1 GMY      -0.0609
     28 O28        22.8920  -36.9806   -4.8038 O.3         1 GMY      -0.3771
     29 C29        22.4954  -37.3530   -3.4711 C.3         1 GMY       0.0369
     30 O30        21.3611  -34.9279   -6.3096 O.3         1 GMY      -0.3877
     31 C31        21.0354  -32.2800   -5.0799 C.3         1 GMY      -0.0567
     32 C32        24.7270  -31.5026   -4.1392 C.3         1 GMY      -0.0373
     33 O33        24.0813  -30.8368   -1.1789 O.3         1 GMY      -0.2436
     34 C34        24.8074  -29.6858   -1.1012 C.2         1 GMY       0.3194
     35 O35        26.0800  -29.5693   -1.5452 O.2         1 GMY      -0.3776
     36 N36        24.2406  -28.6039   -0.5432 N.am        1 GMY      -0.2762
     37 O37        25.8849  -32.6555    0.0725 O.3         1 GMY      -0.3598
     38 C38        25.9707  -33.8336    0.8959 C.3         1 GMY       0.0406
     39 C39        29.7986  -34.9692   -3.5258 C.3         1 GMY      -0.0273
     40 O40        30.6639  -32.2544   -4.1727 O.2         1 GMY      -0.3753
     41 H1         28.3123  -31.0245   -7.6058 H           1 GMY       0.0327
     42 H2         27.1598  -36.5694   -7.8133 H           1 GMY       0.0392
     43 H3         25.6346  -36.0391   -8.4803 H           1 GMY       0.0392
     44 H4         26.1643  -35.7664   -5.4750 H           1 GMY       0.0317
     45 H5         23.5872  -36.0231   -7.0951 H           1 GMY       0.0295
     46 H6         24.3005  -34.4977   -6.5487 H           1 GMY       0.0295
     47 H7         23.9537  -35.2744   -4.1720 H           1 GMY       0.0623
     48 H8         21.3370  -35.0129   -4.2878 H           1 GMY       0.0637
     49 H9         23.0125  -32.8363   -5.6202 H           1 GMY       0.0398
     50 H10        22.2504  -33.2755   -2.7773 H           1 GMY       0.0247
     51 H11        23.6421  -32.7742   -1.1232 H           1 GMY       0.0853
     52 H12        26.4859  -32.0137   -1.7259 H           1 GMY       0.0852
     53 H13        25.4126  -34.7738   -1.6943 H           1 GMY       0.0741
     54 H14        27.0120  -35.3152   -3.1399 H           1 GMY       0.0436
     55 H15        27.4211  -32.6272   -3.7793 H           1 GMY       0.0539
     56 H16        29.8805  -31.6656   -6.2125 H           1 GMY       0.2392
     57 H17        23.5472  -33.6375   -9.9128 H           1 GMY       0.0581
     58 H18        23.9554  -33.5917   -8.1839 H           1 GMY       0.0581
     59 H19        24.0777  -35.1250   -9.1105 H           1 GMY       0.0581
     60 H20        26.5696  -38.1578   -6.1505 H           1 GMY       0.0234
     61 H21        24.9097  -38.2358   -6.7707 H           1 GMY       0.0234
     62 H22        25.2251  -37.9549   -5.0448 H           1 GMY       0.0234
     63 H23        22.2136  -38.4024   -3.4798 H           1 GMY       0.0524
     64 H24        21.6415  -36.7669   -3.1341 H           1 GMY       0.0524
     65 H25        23.3288  -37.2225   -2.7777 H           1 GMY       0.0524
     66 H26        20.4369  -34.6334   -6.1680 H           1 GMY       0.2101
     67 H27        21.2556  -31.2250   -4.8791 H           1 GMY       0.0247
     68 H28        20.2175  -32.5975   -4.4226 H           1 GMY       0.0247
     69 H29        20.6949  -32.3487   -6.1197 H           1 GMY       0.0247
     70 H30        24.1030  -30.7871   -4.6753 H           1 GMY       0.0376
     71 H31        25.1464  -32.2160   -4.8495 H           1 GMY       0.0376
     72 H32        25.5512  -30.9526   -3.7040 H           1 GMY       0.0376
     73 H33        24.7453  -27.7772   -0.4751 H           1 GMY       0.1831
     74 H34        23.3374  -28.6480   -0.1959 H           1 GMY       0.1831
     75 H35        25.9698  -33.5211    1.9442 H           1 GMY       0.0527
     76 H36        26.9072  -34.3686    0.6951 H           1 GMY       0.0527
     77 H37        25.1176  -34.5010    0.7335 H           1 GMY       0.0527
     78 H38        29.2516  -35.8750   -3.8200 H           1 GMY       0.0384
     79 H39        29.9374  -34.9783   -2.4370 H           1 GMY       0.0384
     80 H40        30.7984  -35.0413   -3.9828 H           1 GMY       0.0384
@<TRIPOS>BOND
     1     1     2   1
     2     1     6   2
     3     1     7   1
     4     2     3   1
     5     2    23   2
     6     3     4   2
     7     3    22   1
     8     4     5   1
     9     5     6   1
    10     5    24   2
    11     6    25   1
    12     7     8   1
    13     8     9   1
    14     8    27   1
    15     9    10   1
    16    10    11   1
    17    10    28   1
    18    11    12   1
    19    11    30   1
    20    12    13   1
    21    12    31   1
    22    13    14   2
    23    14    15   1
    24    14    32   1
    25    15    16   1
    26    15    33   1
    27    16    17   1
    28    16    37   1
    29    17    18   2
    30    18    19   1
    31    19    20   2
    32    20    21   1
    33    20    39   1
    34    21    22  am
    35    21    40   2
    36    25    26   1
    37    28    29   1
    38    33    34   1
    39    34    35   2
    40    34    36  am
    41    37    38   1
    42     4    41   1
    43     7    42   1
    44     7    43   1
    45     8    44   1
    46     9    45   1
    47     9    46   1
    48    10    47   1
    49    11    48   1
    50    12    49   1
    51    13    50   1
    52    15    51   1
    53    16    52   1
    54    17    53   1
    55    18    54   1
    56    19    55   1
    57    22    56   1
    58    26    57   1
    59    26    58   1
    60    26    59   1
    61    27    60   1
    62    27    61   1
    63    27    62   1
    64    29    63   1
    65    29    64   1
    66    29    65   1
    67    30    66   1
    68    31    67   1
    69    31    68   1
    70    31    69   1
    71    32    70   1
    72    32    71   1
    73    32    72   1
    74    36    73   1
    75    36    74   1
    76    38    75   1
    77    38    76   1
    78    38    77   1
    79    39    78   1
    80    39    79   1
    81    39    80   1
@<TRIPOS>SUBSTRUCTURE
     1  GMY      1

