@<TRIPOS>MOLECULE
2yge_ligand_026
    80    81
SMALL
GAST_HUCK
****
This file was generated by PARSER (from files_GN.cpp)

@<TRIPOS>ATOM
      1 C1         20.3449  -35.0584   -2.6567 C.2         1 GMY       0.0496
      2 C2         20.2344  -34.3131   -3.8212 C.2         1 GMY       0.1905
      3 C3         19.8837  -32.9750   -3.7765 C.2         1 GMY       0.1367
      4 C4         19.4805  -32.4460   -2.6012 C.2         1 GMY       0.0078
      5 C5         19.5147  -33.1824   -1.4572 C.2         1 GMY       0.1522
      6 C6         19.9003  -34.5047   -1.4893 C.2         1 GMY       0.1484
      7 C7         21.0026  -36.3770   -2.7005 C.3         1 GMY      -0.0163
      8 C8         22.5640  -36.2864   -2.8758 C.3         1 GMY      -0.0344
      9 C9         23.3188  -36.9661   -1.6890 C.3         1 GMY      -0.0200
     10 C10        24.8526  -36.6548   -1.5593 C.3         1 GMY       0.0859
     11 C11        25.2445  -36.0032   -0.1884 C.3         1 GMY       0.0868
     12 C12        24.8648  -34.4952   -0.0235 C.3         1 GMY      -0.0094
     13 C13        25.5252  -33.6421   -1.0157 C.2         1 GMY      -0.1006
     14 C14        24.9884  -32.6343   -1.7458 C.2         1 GMY      -0.0457
     15 C15        25.8589  -31.7950   -2.6006 C.3         1 GMY       0.1504
     16 C16        25.4366  -31.6186   -4.1129 C.3         1 GMY       0.1288
     17 C17        25.1129  -32.9048   -4.7626 C.2         1 GMY      -0.0424
     18 C18        23.9444  -33.3013   -5.3148 C.2         1 GMY      -0.0729
     19 C19        22.7515  -32.6331   -5.3234 C.2         1 GMY      -0.0656
     20 C20        21.7174  -32.7967   -6.1945 C.2         1 GMY       0.0245
     21 C21        20.5432  -32.1264   -5.9570 C.2         1 GMY       0.2316
     22 N22        19.8056  -32.1732   -4.8487 N.am        1 GMY      -0.2158
     23 O23        20.0519  -34.9128   -4.8758 O.2         1 GMY      -0.3575
     24 O24        19.2648  -32.6264   -0.3936 O.2         1 GMY      -0.3865
     25 O25        19.8609  -35.2146   -0.3465 O.3         1 GMY      -0.3151
     26 C26        18.5415  -35.6981   -0.0220 C.3         1 GMY       0.0602
     27 C27        23.0080  -36.8466   -4.2575 C.3         1 GMY      -0.0609
     28 O28        25.6894  -37.8339   -1.6378 O.3         1 GMY      -0.3771
     29 C29        25.8983  -38.4301   -2.9252 C.3         1 GMY       0.0369
     30 O30        24.6939  -36.7863    0.8811 O.3         1 GMY      -0.3877
     31 C31        25.2383  -33.9833    1.3962 C.3         1 GMY      -0.0567
     32 C32        23.5864  -32.2531   -1.5845 C.3         1 GMY      -0.0373
     33 O33        26.0902  -30.5712   -1.8650 O.3         1 GMY      -0.2436
     34 C34        25.8368  -29.2654   -2.1583 C.2         1 GMY       0.3194
     35 O35        25.2746  -28.9044   -3.3389 O.2         1 GMY      -0.3776
     36 N36        26.1913  -28.3254   -1.2610 N.am        1 GMY      -0.2762
     37 O37        26.3853  -30.8429   -4.8836 O.3         1 GMY      -0.3598
     38 C38        27.7418  -31.2931   -5.0765 C.3         1 GMY       0.0406
     39 C39        21.7481  -33.6630   -7.3801 C.3         1 GMY      -0.0273
     40 O40        20.1840  -31.2850   -6.7675 O.2         1 GMY      -0.3753
     41 H1         19.1770  -31.5010   -2.5583 H           1 GMY       0.0327
     42 H2         20.5642  -36.9579   -3.5148 H           1 GMY       0.0392
     43 H3         20.7559  -36.9652   -1.8139 H           1 GMY       0.0392
     44 H4         22.8641  -35.2351   -2.8676 H           1 GMY       0.0317
     45 H5         23.1664  -38.0448   -1.7429 H           1 GMY       0.0295
     46 H6         22.8224  -36.6366   -0.7760 H           1 GMY       0.0295
     47 H7         25.1635  -35.9616   -2.3511 H           1 GMY       0.0623
     48 H8         26.3312  -36.0650   -0.0676 H           1 GMY       0.0637
     49 H9         23.7794  -34.4308   -0.1061 H           1 GMY       0.0398
     50 H10        26.5055  -33.7859   -1.0872 H           1 GMY       0.0247
     51 H11        26.8532  -32.2438   -2.6533 H           1 GMY       0.0853
     52 H12        24.5636  -30.9676   -4.1585 H           1 GMY       0.0852
     53 H13        25.8516  -33.5704   -4.8047 H           1 GMY       0.0741
     54 H14        23.9350  -34.2161   -5.7054 H           1 GMY       0.0436
     55 H15        22.6014  -32.0153   -4.5582 H           1 GMY       0.0539
     56 H16        19.1353  -31.4771   -4.7915 H           1 GMY       0.2392
     57 H17        18.6054  -36.2559    0.9102 H           1 GMY       0.0581
     58 H18        18.1572  -36.3654   -0.7977 H           1 GMY       0.0581
     59 H19        17.8376  -34.8763    0.1275 H           1 GMY       0.0581
     60 H20        22.4584  -36.3554   -5.0636 H           1 GMY       0.0234
     61 H21        22.8142  -37.9227   -4.3130 H           1 GMY       0.0234
     62 H22        24.0706  -36.6687   -4.4313 H           1 GMY       0.0234
     63 H23        26.5452  -39.3015   -2.7959 H           1 GMY       0.0524
     64 H24        26.3929  -37.7275   -3.6027 H           1 GMY       0.0524
     65 H25        24.9576  -38.7607   -3.3614 H           1 GMY       0.0524
     66 H26        24.6849  -37.7093    0.5489 H           1 GMY       0.2101
     67 H27        25.0769  -32.9075    1.4839 H           1 GMY       0.0247
     68 H28        26.2908  -34.1860    1.6310 H           1 GMY       0.0247
     69 H29        24.6107  -34.4698    2.1487 H           1 GMY       0.0247
     70 H30        23.3932  -32.0148   -0.5379 H           1 GMY       0.0376
     71 H31        22.9363  -33.0702   -1.8922 H           1 GMY       0.0376
     72 H32        23.3230  -31.3757   -2.1762 H           1 GMY       0.0376
     73 H33        26.0008  -27.3839   -1.4271 H           1 GMY       0.1831
     74 H34        26.6315  -28.5807   -0.4310 H           1 GMY       0.1831
     75 H35        28.2346  -30.5759   -5.7309 H           1 GMY       0.0527
     76 H36        27.7634  -32.2743   -5.5551 H           1 GMY       0.0527
     77 H37        28.3120  -31.3290   -4.1457 H           1 GMY       0.0527
     78 H38        22.7331  -34.0850   -7.5958 H           1 GMY       0.0384
     79 H39        21.4382  -33.1010   -8.2656 H           1 GMY       0.0384
     80 H40        21.0473  -34.4915   -7.2518 H           1 GMY       0.0384
@<TRIPOS>BOND
     1     1     2   1
     2     1     6   2
     3     1     7   1
     4     2     3   1
     5     2    23   2
     6     3     4   2
     7     3    22   1
     8     4     5   1
     9     5     6   1
    10     5    24   2
    11     6    25   1
    12     7     8   1
    13     8     9   1
    14     8    27   1
    15     9    10   1
    16    10    11   1
    17    10    28   1
    18    11    12   1
    19    11    30   1
    20    12    13   1
    21    12    31   1
    22    13    14   2
    23    14    15   1
    24    14    32   1
    25    15    16   1
    26    15    33   1
    27    16    17   1
    28    16    37   1
    29    17    18   2
    30    18    19   1
    31    19    20   2
    32    20    21   1
    33    20    39   1
    34    21    22  am
    35    21    40   2
    36    25    26   1
    37    28    29   1
    38    33    34   1
    39    34    35   2
    40    34    36  am
    41    37    38   1
    42     4    41   1
    43     7    42   1
    44     7    43   1
    45     8    44   1
    46     9    45   1
    47     9    46   1
    48    10    47   1
    49    11    48   1
    50    12    49   1
    51    13    50   1
    52    15    51   1
    53    16    52   1
    54    17    53   1
    55    18    54   1
    56    19    55   1
    57    22    56   1
    58    26    57   1
    59    26    58   1
    60    26    59   1
    61    27    60   1
    62    27    61   1
    63    27    62   1
    64    29    63   1
    65    29    64   1
    66    29    65   1
    67    30    66   1
    68    31    67   1
    69    31    68   1
    70    31    69   1
    71    32    70   1
    72    32    71   1
    73    32    72   1
    74    36    73   1
    75    36    74   1
    76    38    75   1
    77    38    76   1
    78    38    77   1
    79    39    78   1
    80    39    79   1
    81    39    80   1
@<TRIPOS>SUBSTRUCTURE
     1  GMY      1

