@<TRIPOS>MOLECULE
2yge_ligand_049
    80    81
SMALL
GAST_HUCK
****
This file was generated by PARSER (from files_GN.cpp)

@<TRIPOS>ATOM
      1 C1         24.6856  -30.6136   -6.3741 C.2         1 GMY       0.0496
      2 C2         25.2301  -31.1637   -7.5351 C.2         1 GMY       0.1905
      3 C3         26.4897  -30.8119   -7.9794 C.2         1 GMY       0.1367
      4 C4         27.0802  -29.7228   -7.4381 C.2         1 GMY       0.0078
      5 C5         26.5054  -29.0682   -6.3843 C.2         1 GMY       0.1522
      6 C6         25.3654  -29.5793   -5.7884 C.2         1 GMY       0.1484
      7 C7         23.3869  -31.1153   -5.8758 C.3         1 GMY      -0.0163
      8 C8         23.3390  -32.6602   -5.5320 C.3         1 GMY      -0.0344
      9 C9         23.3085  -32.9413   -3.9908 C.3         1 GMY      -0.0200
     10 C10        23.7056  -34.3742   -3.5067 C.3         1 GMY       0.0859
     11 C11        24.2135  -34.4352   -2.0174 C.3         1 GMY       0.0868
     12 C12        25.6865  -33.9622   -1.7680 C.3         1 GMY      -0.0094
     13 C13        26.6462  -34.7459   -2.5528 C.2         1 GMY      -0.1006
     14 C14        27.5654  -34.3217   -3.4516 C.2         1 GMY      -0.0457
     15 C15        28.5623  -35.2830   -3.9909 C.3         1 GMY       0.1504
     16 C16        28.4130  -35.6402   -5.5043 C.3         1 GMY       0.1288
     17 C17        27.0213  -35.8734   -5.8991 C.2         1 GMY      -0.0424
     18 C18        26.2959  -35.1321   -6.7534 C.2         1 GMY      -0.0729
     19 C19        26.7574  -34.0586   -7.4457 C.2         1 GMY      -0.0656
     20 C20        26.5659  -33.8022   -8.7573 C.2         1 GMY       0.0245
     21 C21        27.2035  -32.7273   -9.3238 C.2         1 GMY       0.2316
     22 N22        27.1896  -31.4513   -8.9366 N.am        1 GMY      -0.2158
     23 O23        24.5241  -31.8136   -8.2846 O.2         1 GMY      -0.3575
     24 O24        26.9803  -27.9992   -6.0325 O.2         1 GMY      -0.3865
     25 O25        24.9087  -28.9427   -4.6934 O.3         1 GMY      -0.3151
     26 C26        25.4879  -29.3963   -3.4516 C.3         1 GMY       0.0602
     27 C27        22.1644  -33.3709   -6.2627 C.3         1 GMY      -0.0609
     28 O28        22.7047  -35.3677   -3.8234 O.3         1 GMY      -0.3771
     29 C29        21.5538  -35.5528   -2.9830 C.3         1 GMY       0.0369
     30 O30        23.3506  -33.6711   -1.1680 O.3         1 GMY      -0.3877
     31 C31        26.0532  -34.1045   -0.2575 C.3         1 GMY      -0.0567
     32 C32        27.5862  -32.9354   -3.9126 C.3         1 GMY      -0.0373
     33 O33        29.8861  -34.7508   -3.8069 O.3         1 GMY      -0.2436
     34 C34        30.5182  -34.5025   -2.6347 C.2         1 GMY       0.3194
     35 O35        29.9665  -34.8363   -1.4462 O.2         1 GMY      -0.3776
     36 N36        31.6810  -33.8443   -2.6546 N.am        1 GMY      -0.2762
     37 O37        29.2783  -36.7124   -5.9532 O.3         1 GMY      -0.3598
     38 C38        29.2420  -38.0156   -5.3414 C.3         1 GMY       0.0406
     39 C39        25.7492  -34.6434   -9.6436 C.3         1 GMY      -0.0273
     40 O40        28.0001  -32.9605  -10.2254 O.2         1 GMY      -0.3753
     41 H1         27.9682  -29.4178   -7.7680 H           1 GMY       0.0327
     42 H2         22.6501  -30.8841   -6.6505 H           1 GMY       0.0392
     43 H3         23.0416  -30.5512   -5.0081 H           1 GMY       0.0392
     44 H4         24.2505  -33.1234   -5.9131 H           1 GMY       0.0317
     45 H5         22.3269  -32.6763   -3.5933 H           1 GMY       0.0295
     46 H6         24.0170  -32.2574   -3.5411 H           1 GMY       0.0295
     47 H7         24.5414  -34.6803   -4.1327 H           1 GMY       0.0623
     48 H8         24.1561  -35.4750   -1.6857 H           1 GMY       0.0637
     49 H9         25.7524  -32.8986   -2.0024 H           1 GMY       0.0398
     50 H10        26.5977  -35.7237   -2.3872 H           1 GMY       0.0247
     51 H11        28.5190  -36.2262   -3.4426 H           1 GMY       0.0853
     52 H12        28.8134  -34.7853   -6.0456 H           1 GMY       0.0852
     53 H13        26.5526  -36.6281   -5.4507 H           1 GMY       0.0741
     54 H14        25.3401  -35.3832   -6.8761 H           1 GMY       0.0436
     55 H15        27.2867  -33.4006   -6.9201 H           1 GMY       0.0539
     56 H16        27.8609  -30.9006   -9.3738 H           1 GMY       0.2392
     57 H17        25.1705  -28.7271   -2.6539 H           1 GMY       0.0581
     58 H18        26.5797  -29.3913   -3.4722 H           1 GMY       0.0581
     59 H19        25.1458  -30.3982   -3.2055 H           1 GMY       0.0581
     60 H20        22.2017  -33.1793   -7.3365 H           1 GMY       0.0234
     61 H21        21.2060  -33.0130   -5.8818 H           1 GMY       0.0234
     62 H22        22.2133  -34.4512   -6.1320 H           1 GMY       0.0234
     63 H23        20.8476  -36.1962   -3.5049 H           1 GMY       0.0524
     64 H24        21.0523  -34.6125   -2.7561 H           1 GMY       0.0524
     65 H25        21.8411  -36.0493   -2.0562 H           1 GMY       0.0524
     66 H26        22.6550  -34.2801   -0.8502 H           1 GMY       0.2101
     67 H27        27.0909  -33.8266   -0.0753 H           1 GMY       0.0247
     68 H28        25.9133  -35.1328    0.0833 H           1 GMY       0.0247
     69 H29        25.4278  -33.4542    0.3561 H           1 GMY       0.0247
     70 H30        27.7694  -32.2641   -3.0748 H           1 GMY       0.0376
     71 H31        26.6276  -32.6841   -4.3700 H           1 GMY       0.0376
     72 H32        28.3654  -32.7510   -4.6528 H           1 GMY       0.0376
     73 H33        32.0927  -33.5617   -1.8249 H           1 GMY       0.1831
     74 H34        32.0675  -33.5693   -3.5003 H           1 GMY       0.1831
     75 H35        29.8606  -38.6851   -5.9384 H           1 GMY       0.0527
     76 H36        28.2308  -38.4236   -5.3117 H           1 GMY       0.0527
     77 H37        29.6564  -37.9879   -4.3326 H           1 GMY       0.0527
     78 H38        25.3860  -35.5585   -9.1777 H           1 GMY       0.0384
     79 H39        26.3183  -34.9442  -10.5279 H           1 GMY       0.0384
     80 H40        24.8755  -34.0736   -9.9656 H           1 GMY       0.0384
@<TRIPOS>BOND
     1     1     2   1
     2     1     6   2
     3     1     7   1
     4     2     3   1
     5     2    23   2
     6     3     4   2
     7     3    22   1
     8     4     5   1
     9     5     6   1
    10     5    24   2
    11     6    25   1
    12     7     8   1
    13     8     9   1
    14     8    27   1
    15     9    10   1
    16    10    11   1
    17    10    28   1
    18    11    12   1
    19    11    30   1
    20    12    13   1
    21    12    31   1
    22    13    14   2
    23    14    15   1
    24    14    32   1
    25    15    16   1
    26    15    33   1
    27    16    17   1
    28    16    37   1
    29    17    18   2
    30    18    19   1
    31    19    20   2
    32    20    21   1
    33    20    39   1
    34    21    22  am
    35    21    40   2
    36    25    26   1
    37    28    29   1
    38    33    34   1
    39    34    35   2
    40    34    36  am
    41    37    38   1
    42     4    41   1
    43     7    42   1
    44     7    43   1
    45     8    44   1
    46     9    45   1
    47     9    46   1
    48    10    47   1
    49    11    48   1
    50    12    49   1
    51    13    50   1
    52    15    51   1
    53    16    52   1
    54    17    53   1
    55    18    54   1
    56    19    55   1
    57    22    56   1
    58    26    57   1
    59    26    58   1
    60    26    59   1
    61    27    60   1
    62    27    61   1
    63    27    62   1
    64    29    63   1
    65    29    64   1
    66    29    65   1
    67    30    66   1
    68    31    67   1
    69    31    68   1
    70    31    69   1
    71    32    70   1
    72    32    71   1
    73    32    72   1
    74    36    73   1
    75    36    74   1
    76    38    75   1
    77    38    76   1
    78    38    77   1
    79    39    78   1
    80    39    79   1
    81    39    80   1
@<TRIPOS>SUBSTRUCTURE
     1  GMY      1

