@<TRIPOS>MOLECULE
2yge_ligand_045
    80    81
SMALL
GAST_HUCK
****
This file was generated by PARSER (from files_GN.cpp)

@<TRIPOS>ATOM
      1 C1         17.4896  -32.9053   -2.6290 C.2         1 GMY       0.0496
      2 C2         16.8469  -33.4038   -3.7629 C.2         1 GMY       0.1905
      3 C3         16.5874  -32.5875   -4.8531 C.2         1 GMY       0.1367
      4 C4         16.8989  -31.2753   -4.7696 C.2         1 GMY       0.0078
      5 C5         17.5488  -30.7823   -3.6770 C.2         1 GMY       0.1522
      6 C6         17.7876  -31.5778   -2.5794 C.2         1 GMY       0.1484
      7 C7         17.8801  -33.8176   -1.5354 C.3         1 GMY      -0.0163
      8 C8         19.1843  -34.6329   -1.8479 C.3         1 GMY      -0.0344
      9 C9         20.4749  -33.8003   -1.5265 C.3         1 GMY      -0.0200
     10 C10        21.8532  -34.4588   -1.8538 C.3         1 GMY       0.0859
     11 C11        23.0184  -33.4105   -1.9616 C.3         1 GMY       0.0868
     12 C12        23.0986  -32.6499   -3.3313 C.3         1 GMY      -0.0094
     13 C13        23.1809  -33.5933   -4.4520 C.2         1 GMY      -0.1006
     14 C14        22.4406  -33.6115   -5.5875 C.2         1 GMY      -0.0457
     15 C15        22.5998  -34.7321   -6.5420 C.3         1 GMY       0.1504
     16 C16        21.2883  -35.4457   -7.0032 C.3         1 GMY       0.1288
     17 C17        20.5185  -35.9709   -5.8823 C.2         1 GMY      -0.0424
     18 C18        19.2287  -35.7326   -5.6024 C.2         1 GMY      -0.0729
     19 C19        18.4021  -34.8620   -6.2302 C.2         1 GMY      -0.0656
     20 C20        17.0849  -35.0814   -6.4574 C.2         1 GMY       0.0245
     21 C21        16.2734  -34.0409   -6.7826 C.2         1 GMY       0.2316
     22 N22        16.0495  -32.9691   -6.0281 N.am        1 GMY      -0.2158
     23 O23        16.3043  -34.4981   -3.7151 O.2         1 GMY      -0.3575
     24 O24        18.1293  -29.7111   -3.7809 O.2         1 GMY      -0.3865
     25 O25        18.4156  -31.0497   -1.5062 O.3         1 GMY      -0.3151
     26 C26        17.7217  -29.9426   -0.8998 C.3         1 GMY       0.0602
     27 C27        19.1498  -36.0094   -1.1241 C.3         1 GMY      -0.0609
     28 O28        22.1729  -35.4239   -0.8213 O.3         1 GMY      -0.3771
     29 C29        23.2467  -36.3467   -1.1152 C.3         1 GMY       0.0369
     30 O30        22.9191  -32.4915   -0.8672 O.3         1 GMY      -0.3877
     31 C31        24.3214  -31.6927   -3.3978 C.3         1 GMY      -0.0567
     32 C32        21.5712  -32.4813   -5.9278 C.3         1 GMY      -0.0373
     33 O33        23.2299  -34.1834   -7.7016 O.3         1 GMY      -0.2436
     34 C34        24.3229  -34.6006   -8.3858 C.2         1 GMY       0.3194
     35 O35        25.0110  -35.7212   -8.0651 O.2         1 GMY      -0.3776
     36 N36        24.6982  -33.8566   -9.4303 N.am        1 GMY      -0.2762
     37 O37        21.5374  -36.4485   -8.0155 O.3         1 GMY      -0.3598
     38 C38        22.1339  -37.7173   -7.6856 C.3         1 GMY       0.0406
     39 C39        16.4586  -36.3964   -6.3214 C.3         1 GMY      -0.0273
     40 O40        15.7389  -34.0551   -7.8831 O.2         1 GMY      -0.3753
     41 H1         16.7169  -30.6705   -5.5411 H           1 GMY       0.0327
     42 H2         17.0434  -34.4925   -1.3416 H           1 GMY       0.0392
     43 H3         18.0185  -33.2894   -0.5883 H           1 GMY       0.0392
     44 H4         19.2108  -34.8534   -2.9161 H           1 GMY       0.0317
     45 H5         20.4657  -33.5222   -0.4670 H           1 GMY       0.0295
     46 H6         20.4010  -32.8722   -2.0985 H           1 GMY       0.0295
     47 H7         21.7277  -34.9780   -2.8045 H           1 GMY       0.0623
     48 H8         23.9700  -33.9317   -1.8269 H           1 GMY       0.0637
     49 H9         22.2098  -32.0227   -3.4010 H           1 GMY       0.0398
     50 H10        23.8647  -34.3063   -4.3371 H           1 GMY       0.0247
     51 H11        23.2486  -35.5078   -6.1214 H           1 GMY       0.0853
     52 H12        20.6980  -34.7072   -7.5421 H           1 GMY       0.0852
     53 H13        20.9916  -36.6093   -5.2831 H           1 GMY       0.0741
     54 H14        18.8522  -36.2077   -4.8180 H           1 GMY       0.0436
     55 H15        18.7662  -33.9528   -6.4081 H           1 GMY       0.0539
     56 H16        15.4895  -32.3029   -6.4593 H           1 GMY       0.2392
     57 H17        18.1764  -29.7490    0.0717 H           1 GMY       0.0581
     58 H18        16.6577  -30.1498   -0.7482 H           1 GMY       0.0581
     59 H19        17.8288  -29.0426   -1.5106 H           1 GMY       0.0581
     60 H20        18.2344  -36.5494   -1.3817 H           1 GMY       0.0234
     61 H21        19.1864  -35.8710   -0.0404 H           1 GMY       0.0234
     62 H22        19.9870  -36.6333   -1.4380 H           1 GMY       0.0234
     63 H23        23.4029  -36.9880   -0.2466 H           1 GMY       0.0524
     64 H24        24.1879  -35.8315   -1.3238 H           1 GMY       0.0524
     65 H25        22.9930  -36.9813   -1.9709 H           1 GMY       0.0524
     66 H26        23.7844  -32.0337   -0.8141 H           1 GMY       0.2101
     67 H27        24.3667  -31.1950   -4.3698 H           1 GMY       0.0247
     68 H28        25.2547  -32.2380   -3.2452 H           1 GMY       0.0247
     69 H29        24.2490  -30.9154   -2.6362 H           1 GMY       0.0247
     70 H30        22.1287  -31.5441   -5.8703 H           1 GMY       0.0376
     71 H31        20.7242  -32.4354   -5.2404 H           1 GMY       0.0376
     72 H32        21.1763  -32.5456   -6.9409 H           1 GMY       0.0376
     73 H33        25.4641  -34.1136   -9.9656 H           1 GMY       0.1831
     74 H34        24.2035  -33.0435   -9.6306 H           1 GMY       0.1831
     75 H35        22.3153  -38.2621   -8.6136 H           1 GMY       0.0527
     76 H36        21.4576  -38.3141   -7.0695 H           1 GMY       0.0527
     77 H37        23.0865  -37.5984   -7.1686 H           1 GMY       0.0527
     78 H38        16.9918  -37.1187   -6.9475 H           1 GMY       0.0384
     79 H39        15.4025  -36.4056   -6.6187 H           1 GMY       0.0384
     80 H40        16.4952  -36.7226   -5.2808 H           1 GMY       0.0384
@<TRIPOS>BOND
     1     1     2   1
     2     1     6   2
     3     1     7   1
     4     2     3   1
     5     2    23   2
     6     3     4   2
     7     3    22   1
     8     4     5   1
     9     5     6   1
    10     5    24   2
    11     6    25   1
    12     7     8   1
    13     8     9   1
    14     8    27   1
    15     9    10   1
    16    10    11   1
    17    10    28   1
    18    11    12   1
    19    11    30   1
    20    12    13   1
    21    12    31   1
    22    13    14   2
    23    14    15   1
    24    14    32   1
    25    15    16   1
    26    15    33   1
    27    16    17   1
    28    16    37   1
    29    17    18   2
    30    18    19   1
    31    19    20   2
    32    20    21   1
    33    20    39   1
    34    21    22  am
    35    21    40   2
    36    25    26   1
    37    28    29   1
    38    33    34   1
    39    34    35   2
    40    34    36  am
    41    37    38   1
    42     4    41   1
    43     7    42   1
    44     7    43   1
    45     8    44   1
    46     9    45   1
    47     9    46   1
    48    10    47   1
    49    11    48   1
    50    12    49   1
    51    13    50   1
    52    15    51   1
    53    16    52   1
    54    17    53   1
    55    18    54   1
    56    19    55   1
    57    22    56   1
    58    26    57   1
    59    26    58   1
    60    26    59   1
    61    27    60   1
    62    27    61   1
    63    27    62   1
    64    29    63   1
    65    29    64   1
    66    29    65   1
    67    30    66   1
    68    31    67   1
    69    31    68   1
    70    31    69   1
    71    32    70   1
    72    32    71   1
    73    32    72   1
    74    36    73   1
    75    36    74   1
    76    38    75   1
    77    38    76   1
    78    38    77   1
    79    39    78   1
    80    39    79   1
    81    39    80   1
@<TRIPOS>SUBSTRUCTURE
     1  GMY      1

