@<TRIPOS>MOLECULE
2yge_ligand_018
    80    81
SMALL
GAST_HUCK
****
This file was generated by PARSER (from files_GN.cpp)

@<TRIPOS>ATOM
      1 C1         25.0091  -32.9524   -6.4266 C.2         1 GMY       0.0496
      2 C2         25.8745  -33.5549   -7.3318 C.2         1 GMY       0.1905
      3 C3         26.4832  -32.8176   -8.3314 C.2         1 GMY       0.1367
      4 C4         26.0515  -31.5567   -8.5576 C.2         1 GMY       0.0078
      5 C5         25.1379  -30.9690   -7.7273 C.2         1 GMY       0.1522
      6 C6         24.6158  -31.6700   -6.6596 C.2         1 GMY       0.1484
      7 C7         24.6506  -33.6496   -5.1779 C.3         1 GMY      -0.0163
      8 C8         25.6650  -33.3578   -4.0063 C.3         1 GMY      -0.0344
      9 C9         25.0638  -32.3929   -2.9253 C.3         1 GMY      -0.0200
     10 C10        26.1014  -31.7655   -1.9230 C.3         1 GMY       0.0859
     11 C11        26.1594  -30.2031   -1.9546 C.3         1 GMY       0.0868
     12 C12        26.6490  -29.5246   -3.2898 C.3         1 GMY      -0.0094
     13 C13        28.0913  -29.7080   -3.5157 C.2         1 GMY      -0.1006
     14 C14        28.7561  -29.7795   -4.6970 C.2         1 GMY      -0.0457
     15 C15        30.2387  -29.7938   -4.7087 C.3         1 GMY       0.1504
     16 C16        30.8690  -31.1249   -5.2407 C.3         1 GMY       0.1288
     17 C17        30.2659  -32.3431   -4.6842 C.2         1 GMY      -0.0424
     18 C18        29.5487  -33.2845   -5.3285 C.2         1 GMY      -0.0729
     19 C19        29.1749  -33.2448   -6.6355 C.2         1 GMY      -0.0656
     20 C20        28.9599  -34.2861   -7.4739 C.2         1 GMY       0.0245
     21 C21        28.5416  -34.0182   -8.7561 C.2         1 GMY       0.2316
     22 N22        27.4865  -33.2816   -9.0985 N.am        1 GMY      -0.2158
     23 O23        25.9016  -34.7753   -7.4303 O.2         1 GMY      -0.3575
     24 O24        24.9383  -29.7644   -7.8332 O.2         1 GMY      -0.3865
     25 O25        23.8301  -31.0274   -5.7791 O.3         1 GMY      -0.3151
     26 C26        22.4217  -31.0645   -6.0696 C.3         1 GMY       0.0602
     27 C27        26.1714  -34.6930   -3.3752 C.3         1 GMY      -0.0609
     28 O28        25.8101  -32.0802   -0.5361 O.3         1 GMY      -0.3771
     29 C29        25.8396  -33.4511   -0.0817 C.3         1 GMY       0.0369
     30 O30        24.8920  -29.6989   -1.5143 O.3         1 GMY      -0.3877
     31 C31        26.3601  -27.9900   -3.2806 C.3         1 GMY      -0.0567
     32 C32        28.0366  -29.8007   -5.9649 C.3         1 GMY      -0.0373
     33 O33        30.7777  -28.7220   -5.5049 O.3         1 GMY      -0.2436
     34 C34        30.5645  -27.3812   -5.4230 C.2         1 GMY       0.3194
     35 O35        29.6941  -26.8453   -4.5294 O.2         1 GMY      -0.3776
     36 N36        31.2291  -26.5711   -6.2526 N.am        1 GMY      -0.2762
     37 O37        32.3130  -31.1589   -5.1374 O.3         1 GMY      -0.3598
     38 C38        32.9816  -31.1704   -3.8612 C.3         1 GMY       0.0406
     39 C39        29.2049  -35.6906   -7.1411 C.3         1 GMY      -0.0273
     40 O40        29.3125  -34.2763   -9.6685 O.2         1 GMY      -0.3753
     41 H1         26.4671  -31.0182   -9.2853 H           1 GMY       0.0327
     42 H2         24.5847  -34.7239   -5.3723 H           1 GMY       0.0392
     43 H3         23.6337  -33.3799   -4.8790 H           1 GMY       0.0392
     44 H4         26.5561  -32.8645   -4.4176 H           1 GMY       0.0317
     45 H5         24.2801  -32.9208   -2.3796 H           1 GMY       0.0295
     46 H6         24.5530  -31.5864   -3.4472 H           1 GMY       0.0295
     47 H7         27.1054  -32.1222   -2.1518 H           1 GMY       0.0623
     48 H8         26.8527  -29.8895   -1.1727 H           1 GMY       0.0637
     49 H9         26.0747  -29.9477   -4.1178 H           1 GMY       0.0398
     50 H10        28.6400  -29.6607   -2.6907 H           1 GMY       0.0247
     51 H11        30.6235  -29.6325   -3.7013 H           1 GMY       0.0853
     52 H12        30.7260  -31.1166   -6.3207 H           1 GMY       0.0852
     53 H13        30.3852  -32.4876   -3.7116 H           1 GMY       0.0741
     54 H14        29.1958  -34.0369   -4.7815 H           1 GMY       0.0436
     55 H15        28.9975  -32.3414   -7.0038 H           1 GMY       0.0539
     56 H16        27.5098  -32.9401  -10.0079 H           1 GMY       0.2392
     57 H17        21.8888  -30.7135   -5.1871 H           1 GMY       0.0581
     58 H18        22.0748  -32.0775   -6.2971 H           1 GMY       0.0581
     59 H19        22.1754  -30.3869   -6.8903 H           1 GMY       0.0581
     60 H20        26.5675  -35.3581   -4.1568 H           1 GMY       0.0234
     61 H21        25.3530  -35.2115   -2.8572 H           1 GMY       0.0234
     62 H22        26.9792  -34.5092   -2.6583 H           1 GMY       0.0234
     63 H23        25.8543  -33.4541    1.0169 H           1 GMY       0.0524
     64 H24        26.7267  -33.9997   -0.4498 H           1 GMY       0.0524
     65 H25        24.9353  -33.9845   -0.4021 H           1 GMY       0.0524
     66 H26        24.2610  -29.8672   -2.2465 H           1 GMY       0.2101
     67 H27        26.7321  -27.5106   -4.1891 H           1 GMY       0.0247
     68 H28        26.8347  -27.5108   -2.4195 H           1 GMY       0.0247
     69 H29        25.2841  -27.8022   -3.2296 H           1 GMY       0.0247
     70 H30        27.4024  -28.9182   -6.0723 H           1 GMY       0.0376
     71 H31        27.4146  -30.6941   -6.0044 H           1 GMY       0.0376
     72 H32        28.7053  -29.8218   -6.8257 H           1 GMY       0.0376
     73 H33        31.0934  -25.6083   -6.2119 H           1 GMY       0.1831
     74 H34        31.8628  -26.9422   -6.8954 H           1 GMY       0.1831
     75 H35        34.0541  -31.2500   -4.0404 H           1 GMY       0.0527
     76 H36        32.6786  -32.0235   -3.2547 H           1 GMY       0.0527
     77 H37        32.8052  -30.2501   -3.3070 H           1 GMY       0.0527
     78 H38        29.5761  -35.8443   -6.1271 H           1 GMY       0.0384
     79 H39        29.9516  -36.1156   -7.8186 H           1 GMY       0.0384
     80 H40        28.2800  -36.2650   -7.2430 H           1 GMY       0.0384
@<TRIPOS>BOND
     1     1     2   1
     2     1     6   2
     3     1     7   1
     4     2     3   1
     5     2    23   2
     6     3     4   2
     7     3    22   1
     8     4     5   1
     9     5     6   1
    10     5    24   2
    11     6    25   1
    12     7     8   1
    13     8     9   1
    14     8    27   1
    15     9    10   1
    16    10    11   1
    17    10    28   1
    18    11    12   1
    19    11    30   1
    20    12    13   1
    21    12    31   1
    22    13    14   2
    23    14    15   1
    24    14    32   1
    25    15    16   1
    26    15    33   1
    27    16    17   1
    28    16    37   1
    29    17    18   2
    30    18    19   1
    31    19    20   2
    32    20    21   1
    33    20    39   1
    34    21    22  am
    35    21    40   2
    36    25    26   1
    37    28    29   1
    38    33    34   1
    39    34    35   2
    40    34    36  am
    41    37    38   1
    42     4    41   1
    43     7    42   1
    44     7    43   1
    45     8    44   1
    46     9    45   1
    47     9    46   1
    48    10    47   1
    49    11    48   1
    50    12    49   1
    51    13    50   1
    52    15    51   1
    53    16    52   1
    54    17    53   1
    55    18    54   1
    56    19    55   1
    57    22    56   1
    58    26    57   1
    59    26    58   1
    60    26    59   1
    61    27    60   1
    62    27    61   1
    63    27    62   1
    64    29    63   1
    65    29    64   1
    66    29    65   1
    67    30    66   1
    68    31    67   1
    69    31    68   1
    70    31    69   1
    71    32    70   1
    72    32    71   1
    73    32    72   1
    74    36    73   1
    75    36    74   1
    76    38    75   1
    77    38    76   1
    78    38    77   1
    79    39    78   1
    80    39    79   1
    81    39    80   1
@<TRIPOS>SUBSTRUCTURE
     1  GMY      1

