@<TRIPOS>MOLECULE
2yge_ligand_002
    80    81
SMALL
GAST_HUCK
****
This file was generated by PARSER (from files_GN.cpp)

@<TRIPOS>ATOM
      1 C1         24.4074  -36.5811   -7.3627 C.2         1 GMY       0.0496
      2 C2         25.5780  -36.9764   -6.7329 C.2         1 GMY       0.1905
      3 C3         26.7031  -36.1755   -6.7685 C.2         1 GMY       0.1367
      4 C4         26.7622  -35.1889   -7.6897 C.2         1 GMY       0.0078
      5 C5         25.6793  -34.9019   -8.4777 C.2         1 GMY       0.1522
      6 C6         24.4865  -35.5638   -8.2691 C.2         1 GMY       0.1484
      7 C7         23.1245  -37.1984   -6.9655 C.3         1 GMY      -0.0163
      8 C8         22.4798  -36.5284   -5.6951 C.3         1 GMY      -0.0344
      9 C9         21.3397  -35.5397   -6.0947 C.3         1 GMY      -0.0200
     10 C10        20.8181  -34.5856   -4.9623 C.3         1 GMY       0.0859
     11 C11        20.7340  -33.0834   -5.4124 C.3         1 GMY       0.0868
     12 C12        22.1350  -32.3735   -5.5179 C.3         1 GMY      -0.0094
     13 C13        22.7590  -32.2394   -4.1972 C.2         1 GMY      -0.1006
     14 C14        24.0745  -32.3052   -3.8730 C.2         1 GMY      -0.0457
     15 C15        24.4826  -32.1514   -2.4574 C.3         1 GMY       0.1504
     16 C16        25.2050  -33.3909   -1.8303 C.3         1 GMY       0.1288
     17 C17        24.4996  -34.6563   -2.0818 C.2         1 GMY      -0.0424
     18 C18        24.9311  -35.7090   -2.8043 C.2         1 GMY      -0.0729
     19 C19        26.0836  -35.7791   -3.5269 C.2         1 GMY      -0.0656
     20 C20        26.7919  -36.8894   -3.8553 C.2         1 GMY       0.0245
     21 C21        27.8465  -36.7535   -4.7158 C.2         1 GMY       0.2316
     22 N22        27.7806  -36.3579   -5.9846 N.am        1 GMY      -0.2158
     23 O23        25.7602  -38.1776   -6.5655 O.2         1 GMY      -0.3575
     24 O24        25.7843  -34.0394   -9.3455 O.2         1 GMY      -0.3865
     25 O25        23.3962  -35.1021   -8.9025 O.3         1 GMY      -0.3151
     26 C26        23.1864  -35.6969  -10.1974 C.3         1 GMY       0.0602
     27 C27        21.9856  -37.5791   -4.6594 C.3         1 GMY      -0.0609
     28 O28        19.5035  -35.0538   -4.5674 O.3         1 GMY      -0.3771
     29 C29        19.0613  -34.7864   -3.2223 C.3         1 GMY       0.0369
     30 O30        20.0155  -33.0069   -6.6470 O.3         1 GMY      -0.3877
     31 C31        22.0237  -30.9652   -6.1621 C.3         1 GMY      -0.0567
     32 C32        25.1014  -32.5050   -4.8977 C.3         1 GMY      -0.0373
     33 O33        25.3524  -31.0050   -2.3699 O.3         1 GMY      -0.2436
     34 C34        25.1970  -29.8783   -1.6169 C.2         1 GMY       0.3194
     35 O35        24.1608  -29.7191   -0.7686 O.2         1 GMY      -0.3776
     36 N36        26.1026  -28.8913   -1.7117 N.am        1 GMY      -0.2762
     37 O37        25.3001  -33.1232   -0.4125 O.3         1 GMY      -0.3598
     38 C38        26.0219  -34.0818    0.3831 C.3         1 GMY       0.0406
     39 C39        26.5500  -38.2315   -3.3233 C.3         1 GMY      -0.0273
     40 O40        28.9736  -36.8198   -4.2381 O.2         1 GMY      -0.3753
     41 H1         27.5825  -34.6259   -7.7678 H           1 GMY       0.0327
     42 H2         23.2869  -38.2621   -6.7740 H           1 GMY       0.0392
     43 H3         22.4248  -37.1835   -7.8070 H           1 GMY       0.0392
     44 H4         23.2460  -35.9393   -5.1809 H           1 GMY       0.0317
     45 H5         20.5018  -36.1170   -6.4976 H           1 GMY       0.0295
     46 H6         21.7067  -34.9369   -6.9227 H           1 GMY       0.0295
     47 H7         21.4921  -34.6479   -4.1065 H           1 GMY       0.0623
     48 H8         20.1329  -32.5247   -4.6872 H           1 GMY       0.0637
     49 H9         22.7688  -32.9730   -6.1766 H           1 GMY       0.0398
     50 H10        22.1293  -32.0168   -3.4624 H           1 GMY       0.0247
     51 H11        23.6051  -31.9721   -1.8242 H           1 GMY       0.0853
     52 H12        26.2253  -33.4224   -2.2264 H           1 GMY       0.0852
     53 H13        23.5974  -34.7442   -1.6738 H           1 GMY       0.0741
     54 H14        24.3163  -36.4868   -2.8635 H           1 GMY       0.0436
     55 H15        26.4042  -34.9190   -3.9067 H           1 GMY       0.0539
     56 H16        28.6289  -36.0909   -6.3745 H           1 GMY       0.2392
     57 H17        22.3412  -35.1878  -10.6699 H           1 GMY       0.0581
     58 H18        22.9468  -36.7592  -10.1036 H           1 GMY       0.0581
     59 H19        24.0665  -35.5860  -10.8405 H           1 GMY       0.0581
     60 H20        22.8161  -38.2043   -4.3294 H           1 GMY       0.0234
     61 H21        21.2217  -38.2217   -5.0977 H           1 GMY       0.0234
     62 H22        21.5692  -37.0972   -3.7751 H           1 GMY       0.0234
     63 H23        18.0393  -35.1552   -3.1243 H           1 GMY       0.0524
     64 H24        19.0596  -33.7198   -2.9972 H           1 GMY       0.0524
     65 H25        19.6920  -35.3110   -2.5010 H           1 GMY       0.0524
     66 H26        19.1346  -33.3920   -6.4580 H           1 GMY       0.2101
     67 H27        23.0113  -30.5243   -6.3162 H           1 GMY       0.0247
     68 H28        21.4462  -30.3013   -5.5227 H           1 GMY       0.0247
     69 H29        21.5293  -31.0243   -7.1320 H           1 GMY       0.0247
     70 H30        25.0468  -31.7110   -5.6416 H           1 GMY       0.0376
     71 H31        24.9651  -33.4689   -5.3928 H           1 GMY       0.0376
     72 H32        26.1116  -32.4820   -4.4801 H           1 GMY       0.0376
     73 H33        25.9847  -28.0745   -1.1948 H           1 GMY       0.1831
     74 H34        26.8656  -28.9832   -2.3021 H           1 GMY       0.1831
     75 H35        26.1309  -33.6788    1.3908 H           1 GMY       0.0527
     76 H36        27.0149  -34.2797   -0.0310 H           1 GMY       0.0527
     77 H37        25.4654  -35.0199    0.4496 H           1 GMY       0.0527
     78 H38        25.7338  -38.2761   -2.6022 H           1 GMY       0.0384
     79 H39        27.4448  -38.6050   -2.8196 H           1 GMY       0.0384
     80 H40        26.3119  -38.9138   -4.1369 H           1 GMY       0.0384
@<TRIPOS>BOND
     1     1     2   1
     2     1     6   2
     3     1     7   1
     4     2     3   1
     5     2    23   2
     6     3     4   2
     7     3    22   1
     8     4     5   1
     9     5     6   1
    10     5    24   2
    11     6    25   1
    12     7     8   1
    13     8     9   1
    14     8    27   1
    15     9    10   1
    16    10    11   1
    17    10    28   1
    18    11    12   1
    19    11    30   1
    20    12    13   1
    21    12    31   1
    22    13    14   2
    23    14    15   1
    24    14    32   1
    25    15    16   1
    26    15    33   1
    27    16    17   1
    28    16    37   1
    29    17    18   2
    30    18    19   1
    31    19    20   2
    32    20    21   1
    33    20    39   1
    34    21    22  am
    35    21    40   2
    36    25    26   1
    37    28    29   1
    38    33    34   1
    39    34    35   2
    40    34    36  am
    41    37    38   1
    42     4    41   1
    43     7    42   1
    44     7    43   1
    45     8    44   1
    46     9    45   1
    47     9    46   1
    48    10    47   1
    49    11    48   1
    50    12    49   1
    51    13    50   1
    52    15    51   1
    53    16    52   1
    54    17    53   1
    55    18    54   1
    56    19    55   1
    57    22    56   1
    58    26    57   1
    59    26    58   1
    60    26    59   1
    61    27    60   1
    62    27    61   1
    63    27    62   1
    64    29    63   1
    65    29    64   1
    66    29    65   1
    67    30    66   1
    68    31    67   1
    69    31    68   1
    70    31    69   1
    71    32    70   1
    72    32    71   1
    73    32    72   1
    74    36    73   1
    75    36    74   1
    76    38    75   1
    77    38    76   1
    78    38    77   1
    79    39    78   1
    80    39    79   1
    81    39    80   1
@<TRIPOS>SUBSTRUCTURE
     1  GMY      1

