@<TRIPOS>MOLECULE
2yge_ligand_048
    80    81
SMALL
GAST_HUCK
****
This file was generated by PARSER (from files_GN.cpp)

@<TRIPOS>ATOM
      1 C1         27.8426  -30.1361   -7.3803 C.2         1 GMY       0.0496
      2 C2         27.3851  -31.3524   -7.9004 C.2         1 GMY       0.1905
      3 C3         28.1675  -32.4947   -7.8365 C.2         1 GMY       0.1367
      4 C4         29.4627  -32.3619   -7.4618 C.2         1 GMY       0.0078
      5 C5         29.9666  -31.1499   -7.0977 C.2         1 GMY       0.1522
      6 C6         29.1416  -30.0596   -6.9557 C.2         1 GMY       0.1484
      7 C7         26.9313  -28.9649   -7.3444 C.3         1 GMY      -0.0163
      8 C8         25.8542  -28.9952   -6.1848 C.3         1 GMY      -0.0344
      9 C9         25.8622  -27.6837   -5.3192 C.3         1 GMY      -0.0200
     10 C10        25.1591  -27.7064   -3.9140 C.3         1 GMY       0.0859
     11 C11        26.1256  -27.9724   -2.7149 C.3         1 GMY       0.0868
     12 C12        26.8728  -29.3496   -2.6895 C.3         1 GMY      -0.0094
     13 C13        25.9729  -30.5026   -2.5211 C.2         1 GMY      -0.1006
     14 C14        26.2288  -31.7919   -2.8546 C.2         1 GMY      -0.0457
     15 C15        25.3292  -32.8632   -2.3614 C.3         1 GMY       0.1504
     16 C16        24.6761  -33.7705   -3.4550 C.3         1 GMY       0.1288
     17 C17        23.9741  -33.0060   -4.4897 C.2         1 GMY      -0.0424
     18 C18        24.2702  -32.9259   -5.8030 C.2         1 GMY      -0.0729
     19 C19        25.3428  -33.4845   -6.4304 C.2         1 GMY      -0.0656
     20 C20        25.4197  -33.8912   -7.7193 C.2         1 GMY       0.0245
     21 C21        26.6166  -34.3570   -8.1950 C.2         1 GMY       0.2316
     22 N22        27.7922  -33.7406   -8.1936 N.am        1 GMY      -0.2158
     23 O23        26.4924  -31.3403   -8.7380 O.2         1 GMY      -0.3575
     24 O24        31.1854  -31.0431   -6.9813 O.2         1 GMY      -0.3865
     25 O25        29.6946  -28.8837   -6.5951 O.3         1 GMY      -0.3151
     26 C26        29.9801  -28.6971   -5.1900 C.3         1 GMY       0.0602
     27 C27        24.4294  -29.2783   -6.7450 C.3         1 GMY      -0.0609
     28 O28        24.5697  -26.3985   -3.7033 O.3         1 GMY      -0.3771
     29 C29        23.6654  -26.2146   -2.5983 C.3         1 GMY       0.0369
     30 O30        27.0512  -26.8734   -2.6713 O.3         1 GMY      -0.3877
     31 C31        27.9347  -29.3344   -1.5558 C.3         1 GMY      -0.0567
     32 C32        27.4057  -32.1612   -3.6493 C.3         1 GMY      -0.0373
     33 O33        26.1120  -33.6971   -1.4879 O.3         1 GMY      -0.2436
     34 C34        26.0897  -33.7505   -0.1312 C.2         1 GMY       0.3194
     35 O35        25.2971  -32.9427    0.6031 O.2         1 GMY      -0.3776
     36 N36        26.9127  -34.5914    0.5075 N.am        1 GMY      -0.2762
     37 O37        23.8292  -34.8150   -2.9170 O.3         1 GMY      -0.3598
     38 C38        22.7456  -34.5144   -2.0180 C.3         1 GMY       0.0406
     39 C39        24.2918  -33.9415   -8.6512 C.3         1 GMY      -0.0273
     40 O40        26.6655  -35.5286   -8.5391 O.2         1 GMY      -0.3753
     41 H1         30.0623  -33.1605   -7.4514 H           1 GMY       0.0327
     42 H2         26.4343  -28.8768   -8.3189 H           1 GMY       0.0392
     43 H3         27.5090  -28.0386   -7.2869 H           1 GMY       0.0392
     44 H4         26.0890  -29.8288   -5.5233 H           1 GMY       0.0317
     45 H5         25.4021  -26.9017   -5.9286 H           1 GMY       0.0295
     46 H6         26.8972  -27.3719   -5.1702 H           1 GMY       0.0295
     47 H7         24.3757  -28.4654   -3.9186 H           1 GMY       0.0623
     48 H8         25.5310  -27.9220   -1.7928 H           1 GMY       0.0637
     49 H9         27.4002  -29.4541   -3.6315 H           1 GMY       0.0398
     50 H10        25.1421  -30.3144   -2.0044 H           1 GMY       0.0247
     51 H11        24.5068  -32.4254   -1.7886 H           1 GMY       0.0853
     52 H12        25.4817  -34.3444   -3.9046 H           1 GMY       0.0852
     53 H13        23.1857  -32.4788   -4.1814 H           1 GMY       0.0741
     54 H14        23.6746  -32.3463   -6.3500 H           1 GMY       0.0436
     55 H15        26.1717  -33.5431   -5.8902 H           1 GMY       0.0539
     56 H16        28.5358  -34.3208   -8.4315 H           1 GMY       0.2392
     57 H17        30.5943  -27.7997   -5.0815 H           1 GMY       0.0581
     58 H18        30.5204  -29.5349   -4.7397 H           1 GMY       0.0581
     59 H19        29.0570  -28.5307   -4.6386 H           1 GMY       0.0581
     60 H20        24.4362  -30.1694   -7.3765 H           1 GMY       0.0234
     61 H21        24.0778  -28.4357   -7.3444 H           1 GMY       0.0234
     62 H22        23.7172  -29.4504   -5.9377 H           1 GMY       0.0234
     63 H23        22.7275  -26.7252   -2.8264 H           1 GMY       0.0524
     64 H24        23.4723  -25.1432   -2.4725 H           1 GMY       0.0524
     65 H25        24.0625  -26.5924   -1.6551 H           1 GMY       0.0524
     66 H26        26.7701  -26.3537   -1.8859 H           1 GMY       0.2101
     67 H27        28.3013  -30.3319   -1.3424 H           1 GMY       0.0247
     68 H28        27.5205  -28.9155   -0.6386 H           1 GMY       0.0247
     69 H29        28.7882  -28.7324   -1.8564 H           1 GMY       0.0247
     70 H30        28.3216  -31.7817   -3.2053 H           1 GMY       0.0376
     71 H31        27.3189  -31.7475   -4.6535 H           1 GMY       0.0376
     72 H32        27.5323  -33.2401   -3.7424 H           1 GMY       0.0376
     73 H33        26.9108  -34.6307    1.4762 H           1 GMY       0.1831
     74 H34        27.5220  -35.1475    0.0027 H           1 GMY       0.1831
     75 H35        22.1705  -35.4288   -1.8637 H           1 GMY       0.0527
     76 H36        22.0775  -33.7545   -2.4256 H           1 GMY       0.0527
     77 H37        23.1211  -34.1902   -1.0484 H           1 GMY       0.0527
     78 H38        23.3465  -33.6248   -8.2136 H           1 GMY       0.0384
     79 H39        24.1419  -34.9614   -9.0143 H           1 GMY       0.0384
     80 H40        24.4978  -33.2988   -9.5106 H           1 GMY       0.0384
@<TRIPOS>BOND
     1     1     2   1
     2     1     6   2
     3     1     7   1
     4     2     3   1
     5     2    23   2
     6     3     4   2
     7     3    22   1
     8     4     5   1
     9     5     6   1
    10     5    24   2
    11     6    25   1
    12     7     8   1
    13     8     9   1
    14     8    27   1
    15     9    10   1
    16    10    11   1
    17    10    28   1
    18    11    12   1
    19    11    30   1
    20    12    13   1
    21    12    31   1
    22    13    14   2
    23    14    15   1
    24    14    32   1
    25    15    16   1
    26    15    33   1
    27    16    17   1
    28    16    37   1
    29    17    18   2
    30    18    19   1
    31    19    20   2
    32    20    21   1
    33    20    39   1
    34    21    22  am
    35    21    40   2
    36    25    26   1
    37    28    29   1
    38    33    34   1
    39    34    35   2
    40    34    36  am
    41    37    38   1
    42     4    41   1
    43     7    42   1
    44     7    43   1
    45     8    44   1
    46     9    45   1
    47     9    46   1
    48    10    47   1
    49    11    48   1
    50    12    49   1
    51    13    50   1
    52    15    51   1
    53    16    52   1
    54    17    53   1
    55    18    54   1
    56    19    55   1
    57    22    56   1
    58    26    57   1
    59    26    58   1
    60    26    59   1
    61    27    60   1
    62    27    61   1
    63    27    62   1
    64    29    63   1
    65    29    64   1
    66    29    65   1
    67    30    66   1
    68    31    67   1
    69    31    68   1
    70    31    69   1
    71    32    70   1
    72    32    71   1
    73    32    72   1
    74    36    73   1
    75    36    74   1
    76    38    75   1
    77    38    76   1
    78    38    77   1
    79    39    78   1
    80    39    79   1
    81    39    80   1
@<TRIPOS>SUBSTRUCTURE
     1  GMY      1

