@<TRIPOS>MOLECULE
2yge_ligand_036
    80    81
SMALL
GAST_HUCK
****
This file was generated by PARSER (from files_GN.cpp)

@<TRIPOS>ATOM
      1 C1         28.1533  -30.4832   -9.6454 C.2         1 GMY       0.0496
      2 C2         26.8653  -30.3453   -9.1370 C.2         1 GMY       0.1905
      3 C3         26.2674  -31.3710   -8.4305 C.2         1 GMY       0.1367
      4 C4         26.8385  -32.5963   -8.4721 C.2         1 GMY       0.0078
      5 C5         28.0218  -32.7952   -9.1278 C.2         1 GMY       0.1522
      6 C6         28.7241  -31.7229   -9.6415 C.2         1 GMY       0.1484
      7 C7         28.8570  -29.2746  -10.1237 C.3         1 GMY      -0.0163
      8 C8         29.1533  -28.2106   -9.0067 C.3         1 GMY      -0.0344
      9 C9         30.2255  -28.7626   -8.0058 C.3         1 GMY      -0.0200
     10 C10        30.4303  -28.0131   -6.6537 C.3         1 GMY       0.0859
     11 C11        31.4101  -28.7590   -5.6793 C.3         1 GMY       0.0868
     12 C12        30.8251  -30.0150   -4.9429 C.3         1 GMY      -0.0094
     13 C13        29.7059  -29.6602   -4.0585 C.2         1 GMY      -0.1006
     14 C14        28.5617  -30.3416   -3.7990 C.2         1 GMY      -0.0457
     15 C15        27.6276  -29.8183   -2.7584 C.3         1 GMY       0.1504
     16 C16        26.5250  -28.8222   -3.2492 C.3         1 GMY       0.1288
     17 C17        27.0012  -27.8373   -4.2271 C.2         1 GMY      -0.0424
     18 C18        26.7327  -27.8639   -5.5475 C.2         1 GMY      -0.0729
     19 C19        26.2041  -28.9446   -6.1646 C.2         1 GMY      -0.0656
     20 C20        25.0959  -28.9879   -6.9306 C.2         1 GMY       0.0245
     21 C21        24.5343  -30.2129   -7.1603 C.2         1 GMY       0.2316
     22 N22        25.1111  -31.2619   -7.7509 N.am        1 GMY      -0.2158
     23 O23        26.1360  -29.4909   -9.6253 O.2         1 GMY      -0.3575
     24 O24        28.4267  -33.9446   -9.2514 O.2         1 GMY      -0.3865
     25 O25        29.9250  -31.9221  -10.2242 O.3         1 GMY      -0.3151
     26 C26        31.0158  -32.2871   -9.3610 C.3         1 GMY       0.0602
     27 C27        29.5601  -26.8497   -9.6469 C.3         1 GMY      -0.0609
     28 O28        30.9573  -26.6947   -6.9223 O.3         1 GMY      -0.3771
     29 C29        30.6106  -25.6534   -5.9909 C.3         1 GMY       0.0369
     30 O30        32.6057  -29.0972   -6.3889 O.3         1 GMY      -0.3877
     31 C31        31.9200  -30.7125   -4.0842 C.3         1 GMY      -0.0567
     32 C32        28.3044  -31.6027   -4.4933 C.3         1 GMY      -0.0373
     33 O33        27.0504  -30.8220   -1.8909 O.3         1 GMY      -0.2436
     34 C34        25.9985  -31.6832   -2.0301 C.2         1 GMY       0.3194
     35 O35        25.2108  -31.7385   -3.1279 O.2         1 GMY      -0.3776
     36 N36        25.7014  -32.5128   -1.0208 N.am        1 GMY      -0.2762
     37 O37        25.9516  -28.1755   -2.0839 O.3         1 GMY      -0.3598
     38 C38        24.8296  -27.2964   -2.3044 C.3         1 GMY       0.0406
     39 C39        24.3857  -27.8110   -7.4313 C.3         1 GMY      -0.0273
     40 O40        23.4911  -30.4630   -6.5752 O.2         1 GMY      -0.3753
     41 H1         26.4057  -33.3584   -7.9953 H           1 GMY       0.0327
     42 H2         28.2410  -28.8232  -10.9074 H           1 GMY       0.0392
     43 H3         29.8061  -29.5178  -10.6098 H           1 GMY       0.0392
     44 H4         28.2308  -28.0257   -8.4500 H           1 GMY       0.0317
     45 H5         31.1828  -28.8365   -8.5302 H           1 GMY       0.0295
     46 H6         29.9241  -29.7740   -7.7410 H           1 GMY       0.0295
     47 H7         29.4467  -27.9401   -6.1854 H           1 GMY       0.0623
     48 H8         31.7249  -28.0580   -4.9041 H           1 GMY       0.0637
     49 H9         30.5207  -30.7341   -5.7034 H           1 GMY       0.0398
     50 H10        29.8585  -28.8339   -3.5335 H           1 GMY       0.0247
     51 H11        28.2263  -29.2503   -2.0375 H           1 GMY       0.0853
     52 H12        25.7286  -29.4209   -3.6884 H           1 GMY       0.0852
     53 H13        27.5173  -27.0651   -3.8746 H           1 GMY       0.0741
     54 H14        27.0400  -27.1068   -6.1088 H           1 GMY       0.0436
     55 H15        26.6218  -29.8118   -5.9155 H           1 GMY       0.0539
     56 H16        24.6345  -32.0969   -7.6305 H           1 GMY       0.2392
     57 H17        31.9392  -32.2330   -9.9294 H           1 GMY       0.0581
     58 H18        30.9014  -33.3065   -9.0056 H           1 GMY       0.0581
     59 H19        31.1087  -31.6252   -8.5066 H           1 GMY       0.0581
     60 H20        28.8478  -26.5565  -10.4203 H           1 GMY       0.0234
     61 H21        30.5521  -26.9139  -10.0977 H           1 GMY       0.0234
     62 H22        29.5621  -26.0539   -8.9029 H           1 GMY       0.0234
     63 H23        31.0815  -24.7308   -6.3243 H           1 GMY       0.0524
     64 H24        30.9622  -25.8698   -4.9823 H           1 GMY       0.0524
     65 H25        29.5314  -25.5003   -5.9695 H           1 GMY       0.0524
     66 H26        33.0101  -28.2423   -6.6498 H           1 GMY       0.2101
     67 H27        31.5262  -31.6128   -3.6105 H           1 GMY       0.0247
     68 H28        32.2877  -30.0398   -3.3060 H           1 GMY       0.0247
     69 H29        32.7670  -31.0146   -4.7025 H           1 GMY       0.0247
     70 H30        29.0591  -32.3400   -4.2201 H           1 GMY       0.0376
     71 H31        28.3224  -31.4621   -5.5728 H           1 GMY       0.0376
     72 H32        27.3421  -32.0339   -4.2662 H           1 GMY       0.0376
     73 H33        24.9536  -33.1279   -1.1045 H           1 GMY       0.1831
     74 H34        26.2227  -32.4943   -0.2051 H           1 GMY       0.1831
     75 H35        24.3872  -27.0435   -1.3413 H           1 GMY       0.0527
     76 H36        24.0649  -27.7699   -2.9195 H           1 GMY       0.0527
     77 H37        25.1583  -26.3724   -2.7864 H           1 GMY       0.0527
     78 H38        24.9147  -26.8789   -7.2370 H           1 GMY       0.0384
     79 H39        23.4033  -27.7437   -6.9627 H           1 GMY       0.0384
     80 H40        24.2498  -27.8868   -8.5124 H           1 GMY       0.0384
@<TRIPOS>BOND
     1     1     2   1
     2     1     6   2
     3     1     7   1
     4     2     3   1
     5     2    23   2
     6     3     4   2
     7     3    22   1
     8     4     5   1
     9     5     6   1
    10     5    24   2
    11     6    25   1
    12     7     8   1
    13     8     9   1
    14     8    27   1
    15     9    10   1
    16    10    11   1
    17    10    28   1
    18    11    12   1
    19    11    30   1
    20    12    13   1
    21    12    31   1
    22    13    14   2
    23    14    15   1
    24    14    32   1
    25    15    16   1
    26    15    33   1
    27    16    17   1
    28    16    37   1
    29    17    18   2
    30    18    19   1
    31    19    20   2
    32    20    21   1
    33    20    39   1
    34    21    22  am
    35    21    40   2
    36    25    26   1
    37    28    29   1
    38    33    34   1
    39    34    35   2
    40    34    36  am
    41    37    38   1
    42     4    41   1
    43     7    42   1
    44     7    43   1
    45     8    44   1
    46     9    45   1
    47     9    46   1
    48    10    47   1
    49    11    48   1
    50    12    49   1
    51    13    50   1
    52    15    51   1
    53    16    52   1
    54    17    53   1
    55    18    54   1
    56    19    55   1
    57    22    56   1
    58    26    57   1
    59    26    58   1
    60    26    59   1
    61    27    60   1
    62    27    61   1
    63    27    62   1
    64    29    63   1
    65    29    64   1
    66    29    65   1
    67    30    66   1
    68    31    67   1
    69    31    68   1
    70    31    69   1
    71    32    70   1
    72    32    71   1
    73    32    72   1
    74    36    73   1
    75    36    74   1
    76    38    75   1
    77    38    76   1
    78    38    77   1
    79    39    78   1
    80    39    79   1
    81    39    80   1
@<TRIPOS>SUBSTRUCTURE
     1  GMY      1

