@<TRIPOS>MOLECULE
2yge_ligand_042
    80    81
SMALL
GAST_HUCK
****
This file was generated by PARSER (from files_GN.cpp)

@<TRIPOS>ATOM
      1 C1         23.7340  -32.9051   -7.5195 C.2         1 GMY       0.0496
      2 C2         22.7178  -33.8018   -7.8358 C.2         1 GMY       0.1905
      3 C3         23.0098  -35.0216   -8.4216 C.2         1 GMY       0.1367
      4 C4         24.2691  -35.2499   -8.8559 C.2         1 GMY       0.0078
      5 C5         25.2700  -34.3517   -8.6116 C.2         1 GMY       0.1522
      6 C6         25.0039  -33.1804   -7.9304 C.2         1 GMY       0.1484
      7 C7         23.4391  -31.7426   -6.6580 C.3         1 GMY      -0.0163
      8 C8         23.5279  -32.0869   -5.1289 C.3         1 GMY      -0.0344
      9 C9         24.6788  -31.2972   -4.4258 C.3         1 GMY      -0.0200
     10 C10        25.1229  -31.8495   -3.0248 C.3         1 GMY       0.0859
     11 C11        26.6532  -32.2059   -2.9323 C.3         1 GMY       0.0868
     12 C12        27.0411  -33.5377   -3.6684 C.3         1 GMY      -0.0094
     13 C13        26.3993  -34.7031   -3.0466 C.2         1 GMY      -0.1006
     14 C14        25.7183  -35.7036   -3.6575 C.2         1 GMY      -0.0457
     15 C15        25.0483  -36.7402   -2.8306 C.3         1 GMY       0.1504
     16 C16        23.5881  -37.1454   -3.2344 C.3         1 GMY       0.1288
     17 C17        22.7244  -35.9601   -3.3113 C.2         1 GMY      -0.0424
     18 C18        21.9599  -35.5576   -4.3432 C.2         1 GMY      -0.0729
     19 C19        21.9292  -36.0920   -5.5928 C.2         1 GMY      -0.0656
     20 C20        20.9156  -36.0129   -6.4914 C.2         1 GMY       0.0245
     21 C21        21.1454  -36.4317   -7.7772 C.2         1 GMY       0.2316
     22 N22        22.1138  -36.0096   -8.5900 N.am        1 GMY      -0.2158
     23 O23        21.5570  -33.4163   -7.8645 O.2         1 GMY      -0.3575
     24 O24        26.4217  -34.6650   -8.8864 O.2         1 GMY      -0.3865
     25 O25        26.0344  -32.4040   -7.5386 O.3         1 GMY      -0.3151
     26 C26        26.5296  -31.4947   -8.5409 C.3         1 GMY       0.0602
     27 C27        22.1587  -31.8728   -4.4295 C.3         1 GMY      -0.0609
     28 O28        24.6166  -31.0560   -1.9247 O.3         1 GMY      -0.3771
     29 C29        25.1753  -29.7707   -1.6132 C.3         1 GMY       0.0369
     30 O30        27.4509  -31.1407   -3.4610 O.3         1 GMY      -0.3877
     31 C31        28.5720  -33.7996   -3.7310 C.3         1 GMY      -0.0567
     32 C32        25.7052  -35.8118   -5.1188 C.3         1 GMY      -0.0373
     33 O33        25.9207  -37.8620   -2.6128 O.3         1 GMY      -0.2436
     34 C34        26.5117  -38.7915   -3.4066 C.2         1 GMY       0.3194
     35 O35        26.4269  -38.7728   -4.7555 O.2         1 GMY      -0.3776
     36 N36        27.2225  -39.7684   -2.8182 N.am        1 GMY      -0.2762
     37 O37        23.0783  -38.0566   -2.2314 O.3         1 GMY      -0.3598
     38 C38        21.7757  -38.6283   -2.4642 C.3         1 GMY       0.0406
     39 C39        19.5693  -35.5136   -6.1949 C.3         1 GMY      -0.0273
     40 O40        20.5001  -37.3838   -8.1882 O.2         1 GMY      -0.3753
     41 H1         24.4927  -36.1170   -9.2940 H           1 GMY       0.0327
     42 H2         22.4505  -31.3403   -6.8972 H           1 GMY       0.0392
     43 H3         24.1055  -30.9126   -6.9063 H           1 GMY       0.0392
     44 H4         23.7567  -33.1499   -5.0177 H           1 GMY       0.0317
     45 H5         24.3781  -30.2520   -4.3462 H           1 GMY       0.0295
     46 H6         25.5396  -31.3059   -5.0955 H           1 GMY       0.0295
     47 H7         24.5919  -32.7890   -2.8618 H           1 GMY       0.0623
     48 H8         26.9129  -32.3028   -1.8757 H           1 GMY       0.0637
     49 H9         26.7186  -33.4233   -4.7027 H           1 GMY       0.0398
     50 H10        26.4958  -34.7539   -2.0542 H           1 GMY       0.0247
     51 H11        24.9348  -36.3520   -1.8115 H           1 GMY       0.0853
     52 H12        23.6294  -37.7021   -4.1737 H           1 GMY       0.0852
     53 H13        22.6469  -35.4317   -2.4714 H           1 GMY       0.0741
     54 H14        21.4035  -34.7539   -4.1785 H           1 GMY       0.0436
     55 H15        22.7808  -36.4974   -5.9073 H           1 GMY       0.0539
     56 H16        22.2488  -36.5575   -9.3808 H           1 GMY       0.2392
     57 H17        27.2432  -30.8234   -8.0632 H           1 GMY       0.0581
     58 H18        25.7326  -30.8875   -8.9767 H           1 GMY       0.0581
     59 H19        27.0488  -32.0325   -9.3364 H           1 GMY       0.0581
     60 H20        21.3856  -32.4642   -4.9232 H           1 GMY       0.0234
     61 H21        21.8709  -30.8256   -4.4928 H           1 GMY       0.0234
     62 H22        22.2013  -32.1699   -3.3801 H           1 GMY       0.0234
     63 H23        24.5915  -29.3339   -0.8030 H           1 GMY       0.0524
     64 H24        25.1428  -29.0906   -2.4638 H           1 GMY       0.0524
     65 H25        26.2025  -29.8695   -1.2696 H           1 GMY       0.0524
     66 H26        27.2256  -30.3370   -2.9515 H           1 GMY       0.2101
     67 H27        28.7834  -34.7409   -4.2445 H           1 GMY       0.0247
     68 H28        29.0043  -33.8535   -2.7318 H           1 GMY       0.0247
     69 H29        29.0709  -33.0021   -4.2838 H           1 GMY       0.0247
     70 H30        26.7265  -35.8450   -5.5010 H           1 GMY       0.0376
     71 H31        25.1896  -34.9554   -5.5508 H           1 GMY       0.0376
     72 H32        25.1982  -36.7040   -5.4770 H           1 GMY       0.0376
     73 H33        27.6659  -40.4460   -3.3531 H           1 GMY       0.1831
     74 H34        27.2547  -39.8255   -1.8455 H           1 GMY       0.1831
     75 H35        21.6242  -39.4427   -1.7573 H           1 GMY       0.0527
     76 H36        21.6811  -39.0282   -3.4748 H           1 GMY       0.0527
     77 H37        20.9992  -37.8823   -2.2984 H           1 GMY       0.0527
     78 H38        19.4070  -35.2850   -5.1423 H           1 GMY       0.0384
     79 H39        18.8203  -36.2581   -6.4732 H           1 GMY       0.0384
     80 H40        19.3729  -34.6058   -6.7683 H           1 GMY       0.0384
@<TRIPOS>BOND
     1     1     2   1
     2     1     6   2
     3     1     7   1
     4     2     3   1
     5     2    23   2
     6     3     4   2
     7     3    22   1
     8     4     5   1
     9     5     6   1
    10     5    24   2
    11     6    25   1
    12     7     8   1
    13     8     9   1
    14     8    27   1
    15     9    10   1
    16    10    11   1
    17    10    28   1
    18    11    12   1
    19    11    30   1
    20    12    13   1
    21    12    31   1
    22    13    14   2
    23    14    15   1
    24    14    32   1
    25    15    16   1
    26    15    33   1
    27    16    17   1
    28    16    37   1
    29    17    18   2
    30    18    19   1
    31    19    20   2
    32    20    21   1
    33    20    39   1
    34    21    22  am
    35    21    40   2
    36    25    26   1
    37    28    29   1
    38    33    34   1
    39    34    35   2
    40    34    36  am
    41    37    38   1
    42     4    41   1
    43     7    42   1
    44     7    43   1
    45     8    44   1
    46     9    45   1
    47     9    46   1
    48    10    47   1
    49    11    48   1
    50    12    49   1
    51    13    50   1
    52    15    51   1
    53    16    52   1
    54    17    53   1
    55    18    54   1
    56    19    55   1
    57    22    56   1
    58    26    57   1
    59    26    58   1
    60    26    59   1
    61    27    60   1
    62    27    61   1
    63    27    62   1
    64    29    63   1
    65    29    64   1
    66    29    65   1
    67    30    66   1
    68    31    67   1
    69    31    68   1
    70    31    69   1
    71    32    70   1
    72    32    71   1
    73    32    72   1
    74    36    73   1
    75    36    74   1
    76    38    75   1
    77    38    76   1
    78    38    77   1
    79    39    78   1
    80    39    79   1
    81    39    80   1
@<TRIPOS>SUBSTRUCTURE
     1  GMY      1

