@<TRIPOS>MOLECULE
2yge_ligand_010
    80    81
SMALL
GAST_HUCK
****
This file was generated by PARSER (from files_GN.cpp)

@<TRIPOS>ATOM
      1 C1         24.7582  -36.1715   -6.7570 C.2         1 GMY       0.0496
      2 C2         26.0773  -35.7258   -6.7825 C.2         1 GMY       0.1905
      3 C3         26.4447  -34.6502   -7.5713 C.2         1 GMY       0.1367
      4 C4         25.6027  -34.2773   -8.5631 C.2         1 GMY       0.0078
      5 C5         24.3791  -34.8743   -8.7044 C.2         1 GMY       0.1522
      6 C6         23.9028  -35.6941   -7.7068 C.2         1 GMY       0.1484
      7 C7         24.3403  -37.1366   -5.7192 C.3         1 GMY      -0.0163
      8 C8         24.4838  -36.5999   -4.2398 C.3         1 GMY      -0.0344
      9 C9         23.1095  -36.4904   -3.4941 C.3         1 GMY      -0.0200
     10 C10        23.1247  -35.7307   -2.1153 C.3         1 GMY       0.0859
     11 C11        21.8365  -34.8765   -1.8568 C.3         1 GMY       0.0868
     12 C12        21.7902  -33.5229   -2.6526 C.3         1 GMY      -0.0094
     13 C13        22.8185  -32.5911   -2.1630 C.2         1 GMY      -0.1006
     14 C14        23.7006  -31.8503   -2.8747 C.2         1 GMY      -0.0457
     15 C15        24.7298  -31.0491   -2.1700 C.3         1 GMY       0.1504
     16 C16        26.2015  -31.4373   -2.5202 C.3         1 GMY       0.1288
     17 C17        26.4513  -32.8579   -2.2909 C.2         1 GMY      -0.0424
     18 C18        26.9019  -33.7717   -3.1711 C.2         1 GMY      -0.0729
     19 C19        27.2103  -33.5588   -4.4824 C.2         1 GMY      -0.0656
     20 C20        28.2612  -34.0857   -5.1598 C.2         1 GMY       0.0245
     21 C21        28.4322  -33.7535   -6.4735 C.2         1 GMY       0.2316
     22 N22        27.5991  -33.9692   -7.4857 N.am        1 GMY      -0.2158
     23 O23        26.9696  -36.4847   -6.4241 O.2         1 GMY      -0.3575
     24 O24        23.7378  -34.6928   -9.7347 O.2         1 GMY      -0.3865
     25 O25        22.6013  -36.0335   -7.7063 O.3         1 GMY      -0.3151
     26 C26        21.7363  -35.0400   -7.1174 C.3         1 GMY       0.0602
     27 C27        25.4924  -37.4554   -3.4245 C.3         1 GMY      -0.0609
     28 O28        23.2802  -36.7182   -1.0716 O.3         1 GMY      -0.3771
     29 C29        24.0319  -36.3377    0.0983 C.3         1 GMY       0.0369
     30 O30        20.6697  -35.6798   -2.0745 O.3         1 GMY      -0.3877
     31 C31        20.4004  -32.8387   -2.5614 C.3         1 GMY      -0.0567
     32 C32        23.6505  -31.8123   -4.3364 C.3         1 GMY      -0.0373
     33 O33        24.5549  -29.6539   -2.4799 O.3         1 GMY      -0.2436
     34 C34        24.2068  -28.6391   -1.6404 C.2         1 GMY       0.3194
     35 O35        23.9157  -28.8450   -0.3361 O.2         1 GMY      -0.3776
     36 N36        24.1204  -27.3939   -2.1300 N.am        1 GMY      -0.2762
     37 O37        27.0976  -30.7245   -1.6336 O.3         1 GMY      -0.3598
     38 C38        27.6815  -29.5020   -2.1132 C.3         1 GMY       0.0406
     39 C39        29.3020  -34.9331   -4.5612 C.3         1 GMY      -0.0273
     40 O40        29.4016  -33.0566   -6.7439 O.2         1 GMY      -0.3753
     41 H1         25.8500  -33.5331   -9.1744 H           1 GMY       0.0327
     42 H2         24.9436  -38.0410   -5.8556 H           1 GMY       0.0392
     43 H3         23.3153  -37.4791   -5.8761 H           1 GMY       0.0392
     44 H4         24.8883  -35.5859   -4.2774 H           1 GMY       0.0317
     45 H5         22.7004  -37.4961   -3.3544 H           1 GMY       0.0295
     46 H6         22.4285  -35.9800   -4.1738 H           1 GMY       0.0295
     47 H7         23.9851  -35.0577   -2.1147 H           1 GMY       0.0623
     48 H8         21.7891  -34.6249   -0.7962 H           1 GMY       0.0637
     49 H9         21.9475  -33.7492   -3.7082 H           1 GMY       0.0398
     50 H10        22.8429  -32.4920   -1.1728 H           1 GMY       0.0247
     51 H11        24.6350  -31.1728   -1.0816 H           1 GMY       0.0853
     52 H12        26.3981  -31.1724   -3.5610 H           1 GMY       0.0852
     53 H13        26.2709  -33.1884   -1.3708 H           1 GMY       0.0741
     54 H14        26.9918  -34.7029   -2.8369 H           1 GMY       0.0436
     55 H15        26.5736  -32.9807   -4.9864 H           1 GMY       0.0539
     56 H16        27.8512  -33.5083   -8.2995 H           1 GMY       0.2392
     57 H17        20.7363  -35.4756   -7.0206 H           1 GMY       0.0581
     58 H18        21.6583  -34.1579   -7.7497 H           1 GMY       0.0581
     59 H19        22.0685  -34.7366   -6.1227 H           1 GMY       0.0581
     60 H20        26.4606  -37.4886   -3.9273 H           1 GMY       0.0234
     61 H21        25.1225  -38.4759   -3.3055 H           1 GMY       0.0234
     62 H22        25.6482  -37.0233   -2.4399 H           1 GMY       0.0234
     63 H23        23.9762  -37.1508    0.8245 H           1 GMY       0.0524
     64 H24        23.6377  -35.4336    0.5700 H           1 GMY       0.0524
     65 H25        25.0811  -36.1760   -0.1591 H           1 GMY       0.0524
     66 H26        20.5429  -35.7189   -3.0456 H           1 GMY       0.2101
     67 H27        20.3957  -31.9082   -3.1287 H           1 GMY       0.0247
     68 H28        20.1393  -32.6225   -1.5249 H           1 GMY       0.0247
     69 H29        19.6311  -33.4853   -2.9863 H           1 GMY       0.0247
     70 H30        22.6565  -31.5085   -4.6662 H           1 GMY       0.0376
     71 H31        23.8822  -32.7979   -4.7430 H           1 GMY       0.0376
     72 H32        24.3607  -31.1022   -4.7631 H           1 GMY       0.0376
     73 H33        23.8734  -26.6606   -1.5472 H           1 GMY       0.1831
     74 H34        24.3021  -27.2277   -3.0683 H           1 GMY       0.1831
     75 H35        28.3445  -29.1217   -1.3296 H           1 GMY       0.0527
     76 H36        26.9200  -28.7481   -2.3149 H           1 GMY       0.0527
     77 H37        28.2744  -29.6711   -3.0164 H           1 GMY       0.0527
     78 H38        29.1523  -35.1359   -3.5030 H           1 GMY       0.0384
     79 H39        30.2785  -34.4517   -4.6566 H           1 GMY       0.0384
     80 H40        29.3424  -35.8947   -5.0795 H           1 GMY       0.0384
@<TRIPOS>BOND
     1     1     2   1
     2     1     6   2
     3     1     7   1
     4     2     3   1
     5     2    23   2
     6     3     4   2
     7     3    22   1
     8     4     5   1
     9     5     6   1
    10     5    24   2
    11     6    25   1
    12     7     8   1
    13     8     9   1
    14     8    27   1
    15     9    10   1
    16    10    11   1
    17    10    28   1
    18    11    12   1
    19    11    30   1
    20    12    13   1
    21    12    31   1
    22    13    14   2
    23    14    15   1
    24    14    32   1
    25    15    16   1
    26    15    33   1
    27    16    17   1
    28    16    37   1
    29    17    18   2
    30    18    19   1
    31    19    20   2
    32    20    21   1
    33    20    39   1
    34    21    22  am
    35    21    40   2
    36    25    26   1
    37    28    29   1
    38    33    34   1
    39    34    35   2
    40    34    36  am
    41    37    38   1
    42     4    41   1
    43     7    42   1
    44     7    43   1
    45     8    44   1
    46     9    45   1
    47     9    46   1
    48    10    47   1
    49    11    48   1
    50    12    49   1
    51    13    50   1
    52    15    51   1
    53    16    52   1
    54    17    53   1
    55    18    54   1
    56    19    55   1
    57    22    56   1
    58    26    57   1
    59    26    58   1
    60    26    59   1
    61    27    60   1
    62    27    61   1
    63    27    62   1
    64    29    63   1
    65    29    64   1
    66    29    65   1
    67    30    66   1
    68    31    67   1
    69    31    68   1
    70    31    69   1
    71    32    70   1
    72    32    71   1
    73    32    72   1
    74    36    73   1
    75    36    74   1
    76    38    75   1
    77    38    76   1
    78    38    77   1
    79    39    78   1
    80    39    79   1
    81    39    80   1
@<TRIPOS>SUBSTRUCTURE
     1  GMY      1

