@<TRIPOS>MOLECULE
2yge_ligand_057
    80    81
SMALL
GAST_HUCK
****
This file was generated by PARSER (from files_GN.cpp)

@<TRIPOS>ATOM
      1 C1         21.2135  -35.2390   -2.1608 C.2         1 GMY       0.0496
      2 C2         20.1977  -35.0202   -3.0963 C.2         1 GMY       0.1905
      3 C3         19.6235  -33.7667   -3.2535 C.2         1 GMY       0.1367
      4 C4         19.8898  -32.8159   -2.3308 C.2         1 GMY       0.0078
      5 C5         20.7623  -33.0623   -1.3016 C.2         1 GMY       0.1522
      6 C6         21.4556  -34.2508   -1.2643 C.2         1 GMY       0.1484
      7 C7         21.9737  -36.5180   -2.1594 C.3         1 GMY      -0.0163
      8 C8         22.9674  -36.7044   -3.3776 C.3         1 GMY      -0.0344
      9 C9         24.4402  -37.0593   -2.9686 C.3         1 GMY      -0.0200
     10 C10        25.5183  -36.7977   -4.0871 C.3         1 GMY       0.0859
     11 C11        26.5804  -35.6637   -3.8225 C.3         1 GMY       0.0868
     12 C12        26.1344  -34.1773   -4.0388 C.3         1 GMY      -0.0094
     13 C13        25.6821  -33.9047   -5.4019 C.2         1 GMY      -0.1006
     14 C14        24.6598  -33.1093   -5.7929 C.2         1 GMY      -0.0457
     15 C15        24.4105  -32.8788   -7.2247 C.3         1 GMY       0.1504
     16 C16        23.0169  -33.3853   -7.7256 C.3         1 GMY       0.1288
     17 C17        22.7773  -34.7891   -7.3922 C.2         1 GMY      -0.0424
     18 C18        21.6921  -35.2749   -6.7651 C.2         1 GMY      -0.0729
     19 C19        20.7498  -34.5155   -6.1585 C.2         1 GMY      -0.0656
     20 C20        19.4005  -34.6902   -6.1891 C.2         1 GMY       0.0245
     21 C21        18.6063  -33.8304   -5.4788 C.2         1 GMY       0.2316
     22 N22        18.7602  -33.4109   -4.2270 N.am        1 GMY      -0.2158
     23 O23        19.6202  -35.9837   -3.5807 O.2         1 GMY      -0.3575
     24 O24        20.8987  -32.2166   -0.4308 O.2         1 GMY      -0.3865
     25 O25        22.4097  -34.3877   -0.3113 O.3         1 GMY      -0.3151
     26 C26        23.7388  -34.0684   -0.7570 C.3         1 GMY       0.0602
     27 C27        22.4340  -37.7846   -4.3600 C.3         1 GMY      -0.0609
     28 O28        26.2455  -38.0347   -4.2874 O.3         1 GMY      -0.3771
     29 C29        26.6475  -38.3313   -5.6368 C.3         1 GMY       0.0369
     30 O30        27.1318  -35.8346   -2.5139 O.3         1 GMY      -0.3877
     31 C31        27.2586  -33.1657   -3.6562 C.3         1 GMY      -0.0567
     32 C32        23.8012  -32.4235   -4.8131 C.3         1 GMY      -0.0373
     33 O33        24.5169  -31.4688   -7.5125 O.3         1 GMY      -0.2436
     34 C34        25.6375  -30.7591   -7.8267 C.2         1 GMY       0.3194
     35 O35        26.8560  -31.3417   -7.9128 O.2         1 GMY      -0.3776
     36 N36        25.5333  -29.4363   -8.0389 N.am        1 GMY      -0.2762
     37 O37        22.9644  -33.2176   -9.1615 O.3         1 GMY      -0.3598
     38 C38        21.6823  -33.3894   -9.7987 C.3         1 GMY       0.0406
     39 C39        18.7253  -35.7084   -6.9995 C.3         1 GMY      -0.0273
     40 O40        17.7142  -33.2546   -6.0817 O.2         1 GMY      -0.3753
     41 H1         19.4988  -31.9035   -2.4269 H           1 GMY       0.0327
     42 H2         21.2581  -37.3435   -2.1100 H           1 GMY       0.0392
     43 H3         22.5452  -36.6280   -1.2381 H           1 GMY       0.0392
     44 H4         23.0139  -35.7509   -3.9199 H           1 GMY       0.0317
     45 H5         24.4588  -38.1144   -2.6865 H           1 GMY       0.0295
     46 H6         24.7266  -36.5218   -2.0659 H           1 GMY       0.0295
     47 H7         24.9932  -36.5229   -5.0082 H           1 GMY       0.0623
     48 H8         27.4221  -35.8466   -4.5046 H           1 GMY       0.0637
     49 H9         25.3335  -33.9851   -3.3546 H           1 GMY       0.0398
     50 H10        26.2675  -34.2851   -6.1221 H           1 GMY       0.0247
     51 H11        25.1615  -33.3756   -7.8536 H           1 GMY       0.0853
     52 H12        22.2621  -32.7221   -7.2916 H           1 GMY       0.0852
     53 H13        23.4358  -35.4482   -7.7411 H           1 GMY       0.0741
     54 H14        21.5979  -36.2611   -6.7164 H           1 GMY       0.0436
     55 H15        21.1019  -33.7698   -5.6011 H           1 GMY       0.0539
     56 H16        18.1907  -32.6655   -3.9923 H           1 GMY       0.2392
     57 H17        24.4543  -34.5311   -0.0671 H           1 GMY       0.0581
     58 H18        23.9048  -32.9867   -0.8031 H           1 GMY       0.0581
     59 H19        23.9299  -34.5086   -1.7334 H           1 GMY       0.0581
     60 H20        21.4293  -37.5398   -4.6858 H           1 GMY       0.0234
     61 H21        22.4111  -38.7582   -3.8669 H           1 GMY       0.0234
     62 H22        23.0729  -37.8554   -5.2391 H           1 GMY       0.0234
     63 H23        27.3058  -39.1967   -5.6128 H           1 GMY       0.0524
     64 H24        27.1921  -37.4991   -6.0872 H           1 GMY       0.0524
     65 H25        25.7760  -38.5725   -6.2511 H           1 GMY       0.0524
     66 H26        26.6431  -35.1997   -1.9465 H           1 GMY       0.2101
     67 H27        26.9431  -32.1345   -3.8609 H           1 GMY       0.0247
     68 H28        28.1776  -33.3778   -4.2272 H           1 GMY       0.0247
     69 H29        27.4737  -33.2420   -2.5840 H           1 GMY       0.0247
     70 H30        24.4086  -31.7990   -4.1559 H           1 GMY       0.0376
     71 H31        23.2598  -33.1584   -4.2146 H           1 GMY       0.0376
     72 H32        23.0650  -31.7691   -5.2830 H           1 GMY       0.0376
     73 H33        26.3246  -28.9207   -8.2618 H           1 GMY       0.1831
     74 H34        24.6717  -29.0004   -7.9681 H           1 GMY       0.1831
     75 H35        21.7596  -33.0012  -10.8122 H           1 GMY       0.0527
     76 H36        20.8915  -32.8383   -9.2849 H           1 GMY       0.0527
     77 H37        21.4201  -34.4480   -9.8477 H           1 GMY       0.0527
     78 H38        19.4035  -36.3869   -7.5157 H           1 GMY       0.0384
     79 H39        18.1039  -35.2343   -7.7660 H           1 GMY       0.0384
     80 H40        18.0784  -36.3135   -6.3582 H           1 GMY       0.0384
@<TRIPOS>BOND
     1     1     2   1
     2     1     6   2
     3     1     7   1
     4     2     3   1
     5     2    23   2
     6     3     4   2
     7     3    22   1
     8     4     5   1
     9     5     6   1
    10     5    24   2
    11     6    25   1
    12     7     8   1
    13     8     9   1
    14     8    27   1
    15     9    10   1
    16    10    11   1
    17    10    28   1
    18    11    12   1
    19    11    30   1
    20    12    13   1
    21    12    31   1
    22    13    14   2
    23    14    15   1
    24    14    32   1
    25    15    16   1
    26    15    33   1
    27    16    17   1
    28    16    37   1
    29    17    18   2
    30    18    19   1
    31    19    20   2
    32    20    21   1
    33    20    39   1
    34    21    22  am
    35    21    40   2
    36    25    26   1
    37    28    29   1
    38    33    34   1
    39    34    35   2
    40    34    36  am
    41    37    38   1
    42     4    41   1
    43     7    42   1
    44     7    43   1
    45     8    44   1
    46     9    45   1
    47     9    46   1
    48    10    47   1
    49    11    48   1
    50    12    49   1
    51    13    50   1
    52    15    51   1
    53    16    52   1
    54    17    53   1
    55    18    54   1
    56    19    55   1
    57    22    56   1
    58    26    57   1
    59    26    58   1
    60    26    59   1
    61    27    60   1
    62    27    61   1
    63    27    62   1
    64    29    63   1
    65    29    64   1
    66    29    65   1
    67    30    66   1
    68    31    67   1
    69    31    68   1
    70    31    69   1
    71    32    70   1
    72    32    71   1
    73    32    72   1
    74    36    73   1
    75    36    74   1
    76    38    75   1
    77    38    76   1
    78    38    77   1
    79    39    78   1
    80    39    79   1
    81    39    80   1
@<TRIPOS>SUBSTRUCTURE
     1  GMY      1

