@<TRIPOS>MOLECULE
2yge_ligand_006
    80    81
SMALL
GAST_HUCK
****
This file was generated by PARSER (from files_GN.cpp)

@<TRIPOS>ATOM
      1 C1         25.3596  -34.1156   -4.5591 C.2         1 GMY       0.0496
      2 C2         25.4949  -34.4418   -5.9067 C.2         1 GMY       0.1905
      3 C3         24.3923  -34.4596   -6.7304 C.2         1 GMY       0.1367
      4 C4         23.1716  -34.5600   -6.1543 C.2         1 GMY       0.0078
      5 C5         23.0348  -34.4707   -4.8005 C.2         1 GMY       0.1522
      6 C6         24.1022  -34.0659   -4.0279 C.2         1 GMY       0.1484
      7 C7         26.5761  -33.8640   -3.7639 C.3         1 GMY      -0.0163
      8 C8         27.4055  -32.6170   -4.2568 C.3         1 GMY      -0.0344
      9 C9         27.1769  -31.3857   -3.3224 C.3         1 GMY      -0.0200
     10 C10        27.7256  -30.0087   -3.8109 C.3         1 GMY       0.0859
     11 C11        27.1048  -28.8003   -3.0264 C.3         1 GMY       0.0868
     12 C12        25.6547  -28.4093   -3.4839 C.3         1 GMY      -0.0094
     13 C13        25.6939  -27.8912   -4.8554 C.2         1 GMY      -0.1006
     14 C14        25.0494  -28.3537   -5.9510 C.2         1 GMY      -0.0457
     15 C15        25.3245  -27.7436   -7.2679 C.3         1 GMY       0.1504
     16 C16        25.8344  -28.7215   -8.3760 C.3         1 GMY       0.1288
     17 C17        26.9763  -29.5150   -7.9212 C.2         1 GMY      -0.0424
     18 C18        27.0750  -30.8570   -7.8073 C.2         1 GMY      -0.0729
     19 C19        26.1294  -31.7880   -8.1139 C.2         1 GMY      -0.0656
     20 C20        26.3613  -33.0333   -8.6085 C.2         1 GMY       0.0245
     21 C21        25.2956  -33.8434   -8.9001 C.2         1 GMY       0.2316
     22 N22        24.4389  -34.4299   -8.0709 N.am        1 GMY      -0.2158
     23 O23        26.4865  -35.0560   -6.2793 O.2         1 GMY      -0.3575
     24 O24        21.9864  -34.8327   -4.2786 O.2         1 GMY      -0.3865
     25 O25        23.8953  -33.6858   -2.7526 O.3         1 GMY      -0.3151
     26 C26        23.2578  -32.4003   -2.5862 C.3         1 GMY       0.0602
     27 C27        28.9037  -32.9827   -4.4503 C.3         1 GMY      -0.0609
     28 O28        29.1588  -30.0049   -3.6297 O.3         1 GMY      -0.3771
     29 C29        29.9372  -29.2579   -4.5782 C.3         1 GMY       0.0369
     30 O30        27.1759  -29.0734   -1.6218 O.3         1 GMY      -0.3877
     31 C31        24.9887  -27.3452   -2.5708 C.3         1 GMY      -0.0567
     32 C32        24.0568  -29.4222   -5.8518 C.3         1 GMY      -0.0373
     33 O33        24.1081  -27.1074   -7.6931 O.3         1 GMY      -0.2436
     34 C34        23.9524  -25.9280   -8.3489 C.2         1 GMY       0.3194
     35 O35        25.0046  -25.1888   -8.7747 O.2         1 GMY      -0.3776
     36 N36        22.7122  -25.4787   -8.5754 N.am        1 GMY      -0.2762
     37 O37        26.2215  -27.8891   -9.4956 O.3         1 GMY      -0.3598
     38 C38        26.3500  -28.5181  -10.7809 C.3         1 GMY       0.0406
     39 C39        27.6784  -33.5489   -8.9962 C.3         1 GMY      -0.0273
     40 O40        25.0313  -34.0083  -10.0819 O.2         1 GMY      -0.3753
     41 H1         22.3540  -34.6302   -6.7170 H           1 GMY       0.0327
     42 H2         27.1802  -34.7762   -3.8092 H           1 GMY       0.0392
     43 H3         26.3460  -33.7492   -2.7017 H           1 GMY       0.0392
     44 H4         27.0493  -32.3186   -5.2461 H           1 GMY       0.0317
     45 H5         27.5847  -31.6075   -2.3365 H           1 GMY       0.0295
     46 H6         26.1007  -31.2925   -3.1972 H           1 GMY       0.0295
     47 H7         27.4748  -29.9206   -4.8715 H           1 GMY       0.0623
     48 H8         27.7382  -27.9223   -3.1803 H           1 GMY       0.0637
     49 H9         25.0296  -29.2935   -3.4090 H           1 GMY       0.0398
     50 H10        26.2900  -27.0991   -4.9746 H           1 GMY       0.0247
     51 H11        26.0913  -26.9628   -7.1768 H           1 GMY       0.0853
     52 H12        25.0000  -29.3550   -8.6748 H           1 GMY       0.0852
     53 H13        27.7814  -28.9917   -7.6528 H           1 GMY       0.0741
     54 H14        27.9258  -31.1916   -7.4226 H           1 GMY       0.0436
     55 H15        25.1848  -31.5334   -7.9251 H           1 GMY       0.0539
     56 H16        23.6793  -34.8477   -8.5117 H           1 GMY       0.2392
     57 H17        23.2755  -32.1520   -1.5246 H           1 GMY       0.0581
     58 H18        22.2180  -32.4291   -2.9173 H           1 GMY       0.0581
     59 H19        23.7778  -31.6084   -3.1282 H           1 GMY       0.0581
     60 H20        28.9970  -33.8627   -5.0915 H           1 GMY       0.0234
     61 H21        29.3775  -33.1990   -3.4925 H           1 GMY       0.0234
     62 H22        29.4401  -32.1724   -4.9408 H           1 GMY       0.0234
     63 H23        30.9816  -29.3088   -4.2756 H           1 GMY       0.0524
     64 H24        29.6383  -28.2112   -4.6112 H           1 GMY       0.0524
     65 H25        29.8436  -29.6907   -5.5738 H           1 GMY       0.0524
     66 H26        28.1393  -29.1048   -1.4357 H           1 GMY       0.2101
     67 H27        23.9994  -27.0798   -2.9553 H           1 GMY       0.0247
     68 H28        25.5973  -26.4386   -2.5194 H           1 GMY       0.0247
     69 H29        24.8579  -27.7380   -1.5607 H           1 GMY       0.0247
     70 H30        23.2697  -29.1296   -5.1562 H           1 GMY       0.0376
     71 H31        24.5260  -30.3451   -5.5021 H           1 GMY       0.0376
     72 H32        23.5747  -29.6383   -6.8028 H           1 GMY       0.0376
     73 H33        22.5743  -24.6388   -9.0433 H           1 GMY       0.1831
     74 H34        21.9553  -25.9658   -8.2131 H           1 GMY       0.1831
     75 H35        26.6402  -27.7591  -11.5090 H           1 GMY       0.0527
     76 H36        25.3973  -28.9483  -11.0969 H           1 GMY       0.0527
     77 H37        27.1204  -29.2916  -10.7633 H           1 GMY       0.0527
     78 H38        28.4977  -32.8532   -8.8285 H           1 GMY       0.0384
     79 H39        27.6914  -33.7944  -10.0601 H           1 GMY       0.0384
     80 H40        27.9031  -34.4567   -8.4358 H           1 GMY       0.0384
@<TRIPOS>BOND
     1     1     2   1
     2     1     6   2
     3     1     7   1
     4     2     3   1
     5     2    23   2
     6     3     4   2
     7     3    22   1
     8     4     5   1
     9     5     6   1
    10     5    24   2
    11     6    25   1
    12     7     8   1
    13     8     9   1
    14     8    27   1
    15     9    10   1
    16    10    11   1
    17    10    28   1
    18    11    12   1
    19    11    30   1
    20    12    13   1
    21    12    31   1
    22    13    14   2
    23    14    15   1
    24    14    32   1
    25    15    16   1
    26    15    33   1
    27    16    17   1
    28    16    37   1
    29    17    18   2
    30    18    19   1
    31    19    20   2
    32    20    21   1
    33    20    39   1
    34    21    22  am
    35    21    40   2
    36    25    26   1
    37    28    29   1
    38    33    34   1
    39    34    35   2
    40    34    36  am
    41    37    38   1
    42     4    41   1
    43     7    42   1
    44     7    43   1
    45     8    44   1
    46     9    45   1
    47     9    46   1
    48    10    47   1
    49    11    48   1
    50    12    49   1
    51    13    50   1
    52    15    51   1
    53    16    52   1
    54    17    53   1
    55    18    54   1
    56    19    55   1
    57    22    56   1
    58    26    57   1
    59    26    58   1
    60    26    59   1
    61    27    60   1
    62    27    61   1
    63    27    62   1
    64    29    63   1
    65    29    64   1
    66    29    65   1
    67    30    66   1
    68    31    67   1
    69    31    68   1
    70    31    69   1
    71    32    70   1
    72    32    71   1
    73    32    72   1
    74    36    73   1
    75    36    74   1
    76    38    75   1
    77    38    76   1
    78    38    77   1
    79    39    78   1
    80    39    79   1
    81    39    80   1
@<TRIPOS>SUBSTRUCTURE
     1  GMY      1

