@<TRIPOS>MOLECULE
2yge_ligand_035
    80    81
SMALL
GAST_HUCK
****
This file was generated by PARSER (from files_GN.cpp)

@<TRIPOS>ATOM
      1 C1         22.3361  -37.7950   -6.6324 C.2         1 GMY       0.0496
      2 C2         23.4601  -38.4056   -7.1967 C.2         1 GMY       0.1905
      3 C3         23.6648  -38.3749   -8.5658 C.2         1 GMY       0.1367
      4 C4         22.6266  -38.0250   -9.3627 C.2         1 GMY       0.0078
      5 C5         21.4452  -37.6063   -8.8262 C.2         1 GMY       0.1522
      6 C6         21.3501  -37.3595   -7.4737 C.2         1 GMY       0.1484
      7 C7         22.2038  -37.6986   -5.1629 C.3         1 GMY      -0.0163
      8 C8         23.1510  -36.6477   -4.4660 C.3         1 GMY      -0.0344
      9 C9         22.3893  -35.7673   -3.4135 C.3         1 GMY      -0.0200
     10 C10        23.1314  -34.4767   -2.9057 C.3         1 GMY       0.0859
     11 C11        22.5488  -33.1205   -3.4241 C.3         1 GMY       0.0868
     12 C12        22.7170  -32.8584   -4.9615 C.3         1 GMY      -0.0094
     13 C13        24.1226  -32.7460   -5.3700 C.2         1 GMY      -0.1006
     14 C14        24.6732  -33.0866   -6.5629 C.2         1 GMY      -0.0457
     15 C15        26.0676  -32.6906   -6.8723 C.3         1 GMY       0.1504
     16 C16        27.0491  -33.8580   -7.2202 C.3         1 GMY       0.1288
     17 C17        27.0675  -34.8637   -6.1548 C.2         1 GMY      -0.0424
     18 C18        26.7793  -36.1760   -6.2531 C.2         1 GMY      -0.0729
     19 C19        26.3602  -36.8367   -7.3638 C.2         1 GMY      -0.0656
     20 C20        26.5913  -38.1377   -7.6690 C.2         1 GMY       0.0245
     21 C21        26.0769  -38.6520   -8.8262 C.2         1 GMY       0.2316
     22 N22        24.8021  -38.7152   -9.1984 N.am        1 GMY      -0.2158
     23 O23        24.0090  -39.3106   -6.5859 O.2         1 GMY      -0.3575
     24 O24        20.4592  -37.4927   -9.5527 O.2         1 GMY      -0.3865
     25 O25        20.2299  -36.7738   -6.9936 O.3         1 GMY      -0.3151
     26 C26        20.0334  -35.3951   -7.3680 C.3         1 GMY       0.0602
     27 C27        24.3870  -37.3393   -3.8160 C.3         1 GMY      -0.0609
     28 O28        23.0398  -34.4091   -1.4617 O.3         1 GMY      -0.3771
     29 C29        23.9153  -35.2594   -0.7079 C.3         1 GMY       0.0369
     30 O30        21.1702  -33.0393   -3.0463 O.3         1 GMY      -0.3877
     31 C31        21.9597  -31.5713   -5.4061 C.3         1 GMY      -0.0567
     32 C32        23.9011  -33.8009   -7.5861 C.3         1 GMY      -0.0373
     33 O33        25.9950  -31.7686   -7.9766 O.3         1 GMY      -0.2436
     34 C34        26.8907  -30.8167   -8.3485 C.2         1 GMY       0.3194
     35 O35        28.0880  -30.6741   -7.7329 O.2         1 GMY      -0.3776
     36 N36        26.5857  -29.9919   -9.3558 N.am        1 GMY      -0.2762
     37 O37        28.3698  -33.2835   -7.3642 O.3         1 GMY      -0.3598
     38 C38        29.3637  -34.0796   -8.0337 C.3         1 GMY       0.0406
     39 C39        27.4214  -39.0547   -6.8806 C.3         1 GMY      -0.0273
     40 O40        26.8727  -39.0011   -9.6868 O.2         1 GMY      -0.3753
     41 H1         22.7268  -38.0395  -10.3528 H           1 GMY       0.0327
     42 H2         22.3641  -38.6926   -4.7309 H           1 GMY       0.0392
     43 H3         21.1659  -37.4777   -4.8989 H           1 GMY       0.0392
     44 H4         23.5263  -35.9641   -5.2277 H           1 GMY       0.0317
     45 H5         22.1421  -36.4076   -2.5609 H           1 GMY       0.0295
     46 H6         21.4288  -35.4634   -3.8393 H           1 GMY       0.0295
     47 H7         24.1793  -34.5003   -3.2175 H           1 GMY       0.0623
     48 H8         23.0563  -32.3083   -2.8901 H           1 GMY       0.0637
     49 H9         22.2534  -33.7007   -5.4654 H           1 GMY       0.0398
     50 H10        24.6998  -32.2485   -4.7301 H           1 GMY       0.0247
     51 H11        26.5163  -32.1658   -6.0199 H           1 GMY       0.0853
     52 H12        26.7470  -34.2738   -8.1832 H           1 GMY       0.0852
     53 H13        27.3392  -34.5355   -5.2551 H           1 GMY       0.0741
     54 H14        26.8419  -36.6937   -5.4113 H           1 GMY       0.0436
     55 H15        25.7803  -36.3191   -7.9864 H           1 GMY       0.0539
     56 H16        24.6773  -39.0042  -10.1156 H           1 GMY       0.2392
     57 H17        19.1823  -35.0014   -6.8064 H           1 GMY       0.0581
     58 H18        19.8151  -35.3124   -8.4366 H           1 GMY       0.0581
     59 H19        20.9085  -34.7911   -7.1347 H           1 GMY       0.0581
     60 H20        24.8783  -37.9997   -4.5266 H           1 GMY       0.0234
     61 H21        24.0850  -37.9298   -2.9505 H           1 GMY       0.0234
     62 H22        25.1185  -36.6034   -3.4885 H           1 GMY       0.0234
     63 H23        23.7007  -35.1179    0.3518 H           1 GMY       0.0524
     64 H24        24.9587  -34.9896   -0.8874 H           1 GMY       0.0524
     65 H25        23.7586  -36.3095   -0.9608 H           1 GMY       0.0524
     66 H26        21.1700  -32.8509   -2.0837 H           1 GMY       0.2101
     67 H27        22.1256  -31.3542   -6.4615 H           1 GMY       0.0247
     68 H28        22.2961  -30.7117   -4.8249 H           1 GMY       0.0247
     69 H29        20.8846  -31.6871   -5.2625 H           1 GMY       0.0247
     70 H30        22.9618  -33.2906   -7.7904 H           1 GMY       0.0376
     71 H31        23.6798  -34.8124   -7.2505 H           1 GMY       0.0376
     72 H32        24.4307  -33.8793   -8.5366 H           1 GMY       0.0376
     73 H33        27.2168  -29.3088   -9.6324 H           1 GMY       0.1831
     74 H34        25.7177  -30.0469   -9.7870 H           1 GMY       0.1831
     75 H35        30.2853  -33.4994   -8.0927 H           1 GMY       0.0527
     76 H36        29.0468  -34.3252   -9.0488 H           1 GMY       0.0527
     77 H37        29.5736  -34.9998   -7.4846 H           1 GMY       0.0527
     78 H38        27.8425  -38.6177   -5.9756 H           1 GMY       0.0384
     79 H39        28.2644  -39.4078   -7.4808 H           1 GMY       0.0384
     80 H40        26.8266  -39.9210   -6.5801 H           1 GMY       0.0384
@<TRIPOS>BOND
     1     1     2   1
     2     1     6   2
     3     1     7   1
     4     2     3   1
     5     2    23   2
     6     3     4   2
     7     3    22   1
     8     4     5   1
     9     5     6   1
    10     5    24   2
    11     6    25   1
    12     7     8   1
    13     8     9   1
    14     8    27   1
    15     9    10   1
    16    10    11   1
    17    10    28   1
    18    11    12   1
    19    11    30   1
    20    12    13   1
    21    12    31   1
    22    13    14   2
    23    14    15   1
    24    14    32   1
    25    15    16   1
    26    15    33   1
    27    16    17   1
    28    16    37   1
    29    17    18   2
    30    18    19   1
    31    19    20   2
    32    20    21   1
    33    20    39   1
    34    21    22  am
    35    21    40   2
    36    25    26   1
    37    28    29   1
    38    33    34   1
    39    34    35   2
    40    34    36  am
    41    37    38   1
    42     4    41   1
    43     7    42   1
    44     7    43   1
    45     8    44   1
    46     9    45   1
    47     9    46   1
    48    10    47   1
    49    11    48   1
    50    12    49   1
    51    13    50   1
    52    15    51   1
    53    16    52   1
    54    17    53   1
    55    18    54   1
    56    19    55   1
    57    22    56   1
    58    26    57   1
    59    26    58   1
    60    26    59   1
    61    27    60   1
    62    27    61   1
    63    27    62   1
    64    29    63   1
    65    29    64   1
    66    29    65   1
    67    30    66   1
    68    31    67   1
    69    31    68   1
    70    31    69   1
    71    32    70   1
    72    32    71   1
    73    32    72   1
    74    36    73   1
    75    36    74   1
    76    38    75   1
    77    38    76   1
    78    38    77   1
    79    39    78   1
    80    39    79   1
    81    39    80   1
@<TRIPOS>SUBSTRUCTURE
     1  GMY      1

