@<TRIPOS>MOLECULE
2yge_ligand_040
    80    81
SMALL
GAST_HUCK
****
This file was generated by PARSER (from files_GN.cpp)

@<TRIPOS>ATOM
      1 C1         28.8795  -42.2530   -4.6942 C.2         1 GMY       0.0496
      2 C2         28.0677  -41.6356   -3.7441 C.2         1 GMY       0.1905
      3 C3         28.6006  -41.1566   -2.5661 C.2         1 GMY       0.1367
      4 C4         29.8579  -41.5173   -2.2294 C.2         1 GMY       0.0078
      5 C5         30.6265  -42.2543   -3.0835 C.2         1 GMY       0.1522
      6 C6         30.1629  -42.5734   -4.3449 C.2         1 GMY       0.1484
      7 C7         28.3090  -42.5653   -6.0191 C.3         1 GMY      -0.0163
      8 C8         27.9680  -41.2979   -6.8880 C.3         1 GMY      -0.0344
      9 C9         29.2681  -40.7164   -7.5436 C.3         1 GMY      -0.0200
     10 C10        29.2024  -39.3705   -8.3390 C.3         1 GMY       0.0859
     11 C11        30.6186  -38.8725   -8.8127 C.3         1 GMY       0.0868
     12 C12        31.5531  -38.2819   -7.7031 C.3         1 GMY      -0.0094
     13 C13        30.9561  -37.0783   -7.1198 C.2         1 GMY      -0.1006
     14 C14        30.7000  -36.8148   -5.8136 C.2         1 GMY      -0.0457
     15 C15        29.9885  -35.5714   -5.4414 C.3         1 GMY       0.1504
     16 C16        28.6041  -35.7767   -4.7333 C.3         1 GMY       0.1288
     17 C17        27.7206  -36.6481   -5.5067 C.2         1 GMY      -0.0424
     18 C18        27.2459  -37.8415   -5.0984 C.2         1 GMY      -0.0729
     19 C19        27.5244  -38.4554   -3.9182 C.2         1 GMY      -0.0656
     20 C20        26.6191  -38.8056   -2.9743 C.2         1 GMY       0.0245
     21 C21        27.0258  -39.4508   -1.8170 C.2         1 GMY       0.2316
     22 N22        27.9197  -40.4248   -1.6670 N.am        1 GMY      -0.2158
     23 O23        26.8552  -41.8116   -3.7761 O.2         1 GMY      -0.3575
     24 O24        31.7256  -42.6306   -2.6931 O.2         1 GMY      -0.3865
     25 O25        30.9301  -43.3263   -5.1620 O.3         1 GMY      -0.3151
     26 C26        32.0892  -42.6949   -5.7506 C.3         1 GMY       0.0602
     27 C27        26.8500  -41.6328   -7.9140 C.3         1 GMY      -0.0609
     28 O28        28.3646  -39.5598   -9.5018 O.3         1 GMY      -0.3771
     29 C29        27.6933  -38.4002  -10.0301 C.3         1 GMY       0.0369
     30 O30        31.2769  -39.9242   -9.5231 O.3         1 GMY      -0.3877
     31 C31        32.9562  -37.9148   -8.2628 C.3         1 GMY      -0.0567
     32 C32        31.1232  -37.7351   -4.7617 C.3         1 GMY      -0.0373
     33 O33        30.8917  -34.7021   -4.7244 O.3         1 GMY      -0.2436
     34 C34        31.0867  -34.3921   -3.4128 C.2         1 GMY       0.3194
     35 O35        30.3986  -34.9489   -2.3930 O.2         1 GMY      -0.3776
     36 N36        32.0119  -33.4751   -3.1064 N.am        1 GMY      -0.2762
     37 O37        28.0201  -34.4607   -4.5690 O.3         1 GMY      -0.3598
     38 C38        26.9613  -34.3264   -3.6057 C.3         1 GMY       0.0406
     39 C39        25.2165  -38.3744   -3.0528 C.3         1 GMY      -0.0273
     40 O40        26.5970  -39.0339   -0.7490 O.2         1 GMY      -0.3753
     41 H1         30.2479  -41.2159   -1.3634 H           1 GMY       0.0327
     42 H2         27.4036  -43.1557   -5.8484 H           1 GMY       0.0392
     43 H3         28.9590  -43.2177   -6.6069 H           1 GMY       0.0392
     44 H4         27.5578  -40.5292   -6.2294 H           1 GMY       0.0317
     45 H5         29.6996  -41.4865   -8.1900 H           1 GMY       0.0295
     46 H6         29.9621  -40.5484   -6.7207 H           1 GMY       0.0295
     47 H7         28.7537  -38.6286   -7.6706 H           1 GMY       0.0623
     48 H8         30.4832  -38.0771   -9.5481 H           1 GMY       0.0637
     49 H9         31.7188  -39.0585   -6.9581 H           1 GMY       0.0398
     50 H10        30.7115  -36.3767   -7.7839 H           1 GMY       0.0247
     51 H11        29.7526  -34.9909   -6.3432 H           1 GMY       0.0853
     52 H12        28.7892  -36.2100   -3.7465 H           1 GMY       0.0852
     53 H13        27.4532  -36.3301   -6.4113 H           1 GMY       0.0741
     54 H14        26.6370  -38.3187   -5.7160 H           1 GMY       0.0436
     55 H15        28.4789  -38.6547   -3.7444 H           1 GMY       0.0539
     56 H16        28.1767  -40.5946   -0.7433 H           1 GMY       0.2392
     57 H17        32.5526  -43.4121   -6.4342 H           1 GMY       0.0581
     58 H18        32.8275  -42.4219   -4.9918 H           1 GMY       0.0581
     59 H19        31.8258  -41.8008   -6.3205 H           1 GMY       0.0581
     60 H20        26.0065  -42.1131   -7.4140 H           1 GMY       0.0234
     61 H21        27.2257  -42.3016   -8.6906 H           1 GMY       0.0234
     62 H22        26.4649  -40.7245   -8.3757 H           1 GMY       0.0234
     63 H23        27.1102  -38.7142  -10.8945 H           1 GMY       0.0524
     64 H24        28.3953  -37.6337  -10.3584 H           1 GMY       0.0524
     65 H25        27.0152  -37.9733   -9.2885 H           1 GMY       0.0524
     66 H26        30.7106  -40.1040  -10.3060 H           1 GMY       0.2101
     67 H27        33.5862  -37.5016   -7.4705 H           1 GMY       0.0247
     68 H28        32.8817  -37.1783   -9.0675 H           1 GMY       0.0247
     69 H29        33.4573  -38.8025   -8.6548 H           1 GMY       0.0247
     70 H30        32.2010  -37.8901   -4.8123 H           1 GMY       0.0376
     71 H31        30.6207  -38.6938   -4.8839 H           1 GMY       0.0376
     72 H32        30.8909  -37.3639   -3.7635 H           1 GMY       0.0376
     73 H33        32.1200  -33.2192   -2.1801 H           1 GMY       0.1831
     74 H34        32.5398  -33.0541   -3.8019 H           1 GMY       0.1831
     75 H35        26.6291  -33.2871   -3.6091 H           1 GMY       0.0527
     76 H36        27.3165  -34.5726   -2.6033 H           1 GMY       0.0527
     77 H37        26.1108  -34.9621   -3.8591 H           1 GMY       0.0527
     78 H38        24.9164  -38.0004   -4.0344 H           1 GMY       0.0384
     79 H39        25.0273  -37.5773   -2.3258 H           1 GMY       0.0384
     80 H40        24.5569  -39.2098   -2.8230 H           1 GMY       0.0384
@<TRIPOS>BOND
     1     1     2   1
     2     1     6   2
     3     1     7   1
     4     2     3   1
     5     2    23   2
     6     3     4   2
     7     3    22   1
     8     4     5   1
     9     5     6   1
    10     5    24   2
    11     6    25   1
    12     7     8   1
    13     8     9   1
    14     8    27   1
    15     9    10   1
    16    10    11   1
    17    10    28   1
    18    11    12   1
    19    11    30   1
    20    12    13   1
    21    12    31   1
    22    13    14   2
    23    14    15   1
    24    14    32   1
    25    15    16   1
    26    15    33   1
    27    16    17   1
    28    16    37   1
    29    17    18   2
    30    18    19   1
    31    19    20   2
    32    20    21   1
    33    20    39   1
    34    21    22  am
    35    21    40   2
    36    25    26   1
    37    28    29   1
    38    33    34   1
    39    34    35   2
    40    34    36  am
    41    37    38   1
    42     4    41   1
    43     7    42   1
    44     7    43   1
    45     8    44   1
    46     9    45   1
    47     9    46   1
    48    10    47   1
    49    11    48   1
    50    12    49   1
    51    13    50   1
    52    15    51   1
    53    16    52   1
    54    17    53   1
    55    18    54   1
    56    19    55   1
    57    22    56   1
    58    26    57   1
    59    26    58   1
    60    26    59   1
    61    27    60   1
    62    27    61   1
    63    27    62   1
    64    29    63   1
    65    29    64   1
    66    29    65   1
    67    30    66   1
    68    31    67   1
    69    31    68   1
    70    31    69   1
    71    32    70   1
    72    32    71   1
    73    32    72   1
    74    36    73   1
    75    36    74   1
    76    38    75   1
    77    38    76   1
    78    38    77   1
    79    39    78   1
    80    39    79   1
    81    39    80   1
@<TRIPOS>SUBSTRUCTURE
     1  GMY      1

