@<TRIPOS>MOLECULE
2yge_ligand_008
    80    81
SMALL
GAST_HUCK
****
This file was generated by PARSER (from files_GN.cpp)

@<TRIPOS>ATOM
      1 C1         23.8332  -32.2814   -5.0851 C.2         1 GMY       0.0496
      2 C2         24.4930  -31.3695   -4.2723 C.2         1 GMY       0.1905
      3 C3         24.7913  -31.6809   -2.9606 C.2         1 GMY       0.1367
      4 C4         24.2153  -32.7697   -2.4042 C.2         1 GMY       0.0078
      5 C5         23.4514  -33.6158   -3.1557 C.2         1 GMY       0.1522
      6 C6         23.2874  -33.3885   -4.5077 C.2         1 GMY       0.1484
      7 C7         23.8329  -32.0917   -6.5485 C.3         1 GMY      -0.0163
      8 C8         25.0492  -32.7721   -7.2856 C.3         1 GMY      -0.0344
      9 C9         24.5747  -33.9200   -8.2321 C.3         1 GMY      -0.0200
     10 C10        25.7035  -34.8380   -8.8267 C.3         1 GMY       0.0859
     11 C11        25.5736  -36.3421   -8.3833 C.3         1 GMY       0.0868
     12 C12        25.8041  -36.6099   -6.8455 C.3         1 GMY      -0.0094
     13 C13        27.1728  -36.2768   -6.4277 C.2         1 GMY      -0.1006
     14 C14        27.5948  -35.8396   -5.2146 C.2         1 GMY      -0.0457
     15 C15        29.0448  -35.7214   -4.9413 C.3         1 GMY       0.1504
     16 C16        29.5351  -34.3152   -4.4736 C.3         1 GMY       0.1288
     17 C17        29.1796  -33.2809   -5.4558 C.2         1 GMY      -0.0424
     18 C18        28.4109  -32.1922   -5.2616 C.2         1 GMY      -0.0729
     19 C19        27.7839  -31.8399   -4.1083 C.2         1 GMY      -0.0656
     20 C20        27.4949  -30.5860   -3.6839 C.2         1 GMY       0.0245
     21 C21        26.8069  -30.4291   -2.5072 C.2         1 GMY       0.2316
     22 N22        25.6274  -30.9589   -2.1979 N.am        1 GMY      -0.2158
     23 O23        24.5801  -30.1935   -4.6125 O.2         1 GMY      -0.3575
     24 O24        23.0294  -34.6461   -2.6408 O.2         1 GMY      -0.3865
     25 O25        22.7092  -34.3419   -5.2638 O.3         1 GMY      -0.3151
     26 C26        21.2766  -34.4195   -5.1330 C.3         1 GMY       0.0602
     27 C27        25.9087  -31.7231   -8.0561 C.3         1 GMY      -0.0609
     28 O28        25.6740  -34.6294  -10.2659 O.3         1 GMY      -0.3771
     29 C29        26.4298  -35.4970  -11.1265 C.3         1 GMY       0.0369
     30 O30        24.2843  -36.8261   -8.7835 O.3         1 GMY      -0.3877
     31 C31        25.5213  -38.1006   -6.4927 C.3         1 GMY      -0.0567
     32 C32        26.6405  -35.5613   -4.1422 C.3         1 GMY      -0.0373
     33 O33        29.3806  -36.6807   -3.9242 O.3         1 GMY      -0.2436
     34 C34        29.8916  -37.9257   -4.1087 C.2         1 GMY       0.3194
     35 O35        30.1264  -38.4366   -5.3398 O.2         1 GMY      -0.3776
     36 N36        30.1313  -38.7001   -3.0410 N.am        1 GMY      -0.2762
     37 O37        30.9737  -34.3624   -4.3325 O.3         1 GMY      -0.3598
     38 C38        31.5738  -33.3770   -3.4717 C.3         1 GMY       0.0406
     39 C39        27.9021  -29.3569   -4.3710 C.3         1 GMY      -0.0273
     40 O40        27.3750  -29.8657   -1.5833 O.2         1 GMY      -0.3753
     41 H1         24.4110  -33.0033   -1.4553 H           1 GMY       0.0327
     42 H2         23.8019  -31.0240   -6.7815 H           1 GMY       0.0392
     43 H3         22.8854  -32.4585   -6.9487 H           1 GMY       0.0392
     44 H4         25.7100  -33.2215   -6.5339 H           1 GMY       0.0317
     45 H5         24.0021  -33.4699   -9.0429 H           1 GMY       0.0295
     46 H6         23.8648  -34.5345   -7.6834 H           1 GMY       0.0295
     47 H7         26.6797  -34.4924   -8.4813 H           1 GMY       0.0623
     48 H8         26.3149  -36.9340   -8.9280 H           1 GMY       0.0637
     49 H9         25.0861  -36.0039   -6.2905 H           1 GMY       0.0398
     50 H10        27.8778  -36.5011   -7.0974 H           1 GMY       0.0247
     51 H11        29.6355  -35.9503   -5.8358 H           1 GMY       0.0853
     52 H12        29.1009  -34.1182   -3.4953 H           1 GMY       0.0852
     53 H13        29.5485  -33.4038   -6.3734 H           1 GMY       0.0741
     54 H14        28.2491  -31.6253   -6.0590 H           1 GMY       0.0436
     55 H15        27.4610  -32.5941   -3.5406 H           1 GMY       0.0539
     56 H16        25.3723  -30.8797   -1.2658 H           1 GMY       0.2392
     57 H17        20.9121  -35.1759   -5.8271 H           1 GMY       0.0581
     58 H18        20.7972  -33.4674   -5.3769 H           1 GMY       0.0581
     59 H19        20.9853  -34.7229   -4.1234 H           1 GMY       0.0581
     60 H20        26.2093  -30.9135   -7.3864 H           1 GMY       0.0234
     61 H21        25.3426  -31.2954   -8.8854 H           1 GMY       0.0234
     62 H22        26.8172  -32.1739   -8.4589 H           1 GMY       0.0234
     63 H23        26.5207  -35.0155  -12.1051 H           1 GMY       0.0524
     64 H24        25.9218  -36.4474  -11.2544 H           1 GMY       0.0524
     65 H25        27.4393  -35.6634  -10.7421 H           1 GMY       0.0524
     66 H26        24.3260  -36.9098   -9.7634 H           1 GMY       0.2101
     67 H27        25.7069  -38.3044   -5.4367 H           1 GMY       0.0247
     68 H28        26.1602  -38.7600   -7.0864 H           1 GMY       0.0247
     69 H29        24.4788  -38.3532   -6.6974 H           1 GMY       0.0247
     70 H30        26.0155  -36.4342   -3.9504 H           1 GMY       0.0376
     71 H31        26.0056  -34.7221   -4.4282 H           1 GMY       0.0376
     72 H32        27.1234  -35.3065   -3.1987 H           1 GMY       0.0376
     73 H33        30.4762  -39.5994   -3.1620 H           1 GMY       0.1831
     74 H34        29.9374  -38.3718   -2.1518 H           1 GMY       0.1831
     75 H35        32.6542  -33.4889   -3.5175 H           1 GMY       0.0527
     76 H36        31.2493  -33.5120   -2.4403 H           1 GMY       0.0527
     77 H37        31.3228  -32.3699   -3.8023 H           1 GMY       0.0527
     78 H38        28.4489  -29.5207   -5.3007 H           1 GMY       0.0384
     79 H39        28.5544  -28.7663   -3.7263 H           1 GMY       0.0384
     80 H40        27.0235  -28.7548   -4.6140 H           1 GMY       0.0384
@<TRIPOS>BOND
     1     1     2   1
     2     1     6   2
     3     1     7   1
     4     2     3   1
     5     2    23   2
     6     3     4   2
     7     3    22   1
     8     4     5   1
     9     5     6   1
    10     5    24   2
    11     6    25   1
    12     7     8   1
    13     8     9   1
    14     8    27   1
    15     9    10   1
    16    10    11   1
    17    10    28   1
    18    11    12   1
    19    11    30   1
    20    12    13   1
    21    12    31   1
    22    13    14   2
    23    14    15   1
    24    14    32   1
    25    15    16   1
    26    15    33   1
    27    16    17   1
    28    16    37   1
    29    17    18   2
    30    18    19   1
    31    19    20   2
    32    20    21   1
    33    20    39   1
    34    21    22  am
    35    21    40   2
    36    25    26   1
    37    28    29   1
    38    33    34   1
    39    34    35   2
    40    34    36  am
    41    37    38   1
    42     4    41   1
    43     7    42   1
    44     7    43   1
    45     8    44   1
    46     9    45   1
    47     9    46   1
    48    10    47   1
    49    11    48   1
    50    12    49   1
    51    13    50   1
    52    15    51   1
    53    16    52   1
    54    17    53   1
    55    18    54   1
    56    19    55   1
    57    22    56   1
    58    26    57   1
    59    26    58   1
    60    26    59   1
    61    27    60   1
    62    27    61   1
    63    27    62   1
    64    29    63   1
    65    29    64   1
    66    29    65   1
    67    30    66   1
    68    31    67   1
    69    31    68   1
    70    31    69   1
    71    32    70   1
    72    32    71   1
    73    32    72   1
    74    36    73   1
    75    36    74   1
    76    38    75   1
    77    38    76   1
    78    38    77   1
    79    39    78   1
    80    39    79   1
    81    39    80   1
@<TRIPOS>SUBSTRUCTURE
     1  GMY      1

