@<TRIPOS>MOLECULE
2yge_ligand_003
    80    81
SMALL
GAST_HUCK
****
This file was generated by PARSER (from files_GN.cpp)

@<TRIPOS>ATOM
      1 C1         26.6627  -34.8045   -7.8137 C.2         1 GMY       0.0496
      2 C2         27.4922  -35.5070   -6.9517 C.2         1 GMY       0.1905
      3 C3         28.6313  -34.9064   -6.4326 C.2         1 GMY       0.1367
      4 C4         29.0991  -33.7985   -7.0426 C.2         1 GMY       0.0078
      5 C5         28.4003  -33.2173   -8.0569 C.2         1 GMY       0.1522
      6 C6         27.1045  -33.6144   -8.3209 C.2         1 GMY       0.1484
      7 C7         25.3260  -35.3535   -8.1313 C.3         1 GMY      -0.0163
      8 C8         24.3019  -35.2707   -6.9342 C.3         1 GMY      -0.0344
      9 C9         23.0204  -34.4597   -7.3215 C.3         1 GMY      -0.0200
     10 C10        22.1099  -34.0196   -6.1181 C.3         1 GMY       0.0859
     11 C11        21.7711  -32.4871   -6.0783 C.3         1 GMY       0.0868
     12 C12        23.0106  -31.5769   -5.7194 C.3         1 GMY      -0.0094
     13 C13        23.4189  -31.7532   -4.3197 C.2         1 GMY      -0.1006
     14 C14        24.6743  -31.8337   -3.8120 C.2         1 GMY      -0.0457
     15 C15        24.8624  -31.8689   -2.3481 C.3         1 GMY       0.1504
     16 C16        25.4982  -33.1792   -1.7767 C.3         1 GMY       0.1288
     17 C17        24.9101  -34.3893   -2.3706 C.2         1 GMY      -0.0424
     18 C18        25.5193  -35.2972   -3.1682 C.2         1 GMY      -0.0729
     19 C19        26.8015  -35.2434   -3.6283 C.2         1 GMY      -0.0656
     20 C20        27.6236  -36.2824   -3.9220 C.2         1 GMY       0.0245
     21 C21        28.9080  -36.0050   -4.2902 C.2         1 GMY       0.2316
     22 N22        29.3201  -35.3642   -5.3808 N.am        1 GMY      -0.2158
     23 O23        27.4562  -36.7258   -6.9516 O.2         1 GMY      -0.3575
     24 O24        28.9443  -32.3463   -8.7353 O.2         1 GMY      -0.3865
     25 O25        26.3034  -32.8607   -9.1082 O.3         1 GMY      -0.3151
     26 C26        26.1918  -31.4565   -8.7964 C.3         1 GMY       0.0602
     27 C27        23.9291  -36.6736   -6.3783 C.3         1 GMY      -0.0609
     28 O28        20.9644  -34.8952   -5.9614 O.3         1 GMY      -0.3771
     29 C29        19.8362  -34.7939   -6.8521 C.3         1 GMY       0.0369
     30 O30        21.1461  -32.1240   -7.3167 O.3         1 GMY      -0.3877
     31 C31        22.7431  -30.0663   -5.9394 C.3         1 GMY      -0.0567
     32 C32        25.8518  -31.7920   -4.6791 C.3         1 GMY      -0.0373
     33 O33        25.6982  -30.7474   -2.0144 O.3         1 GMY      -0.2436
     34 C34        25.4103  -29.6290   -1.3050 C.2         1 GMY       0.3194
     35 O35        24.2034  -29.4353   -0.7293 O.2         1 GMY      -0.3776
     36 N36        26.3443  -28.6732   -1.2103 N.am        1 GMY      -0.2762
     37 O37        25.3007  -33.1123   -0.3405 O.3         1 GMY      -0.3598
     38 C38        25.8626  -34.1579    0.4667 C.3         1 GMY       0.0406
     39 C39        27.2870  -37.7038   -3.7791 C.3         1 GMY      -0.0273
     40 O40        29.7778  -36.1964   -3.4498 O.2         1 GMY      -0.3753
     41 H1         29.9347  -33.3624   -6.7188 H           1 GMY       0.0327
     42 H2         25.4525  -36.3925   -8.4503 H           1 GMY       0.0392
     43 H3         24.9123  -34.8645   -9.0186 H           1 GMY       0.0392
     44 H4         24.7758  -34.7287   -6.1140 H           1 GMY       0.0317
     45 H5         22.4419  -35.0513   -8.0356 H           1 GMY       0.0295
     46 H6         23.3430  -33.5703   -7.8649 H           1 GMY       0.0295
     47 H7         22.6656  -34.2135   -5.1992 H           1 GMY       0.0623
     48 H8         21.0055  -32.3410   -5.3088 H           1 GMY       0.0637
     49 H9         23.8253  -31.8431   -6.3916 H           1 GMY       0.0398
     50 H10        22.6632  -31.7276   -3.6716 H           1 GMY       0.0247
     51 H11        23.9040  -31.7434   -1.8361 H           1 GMY       0.0853
     52 H12        26.5761  -33.1359   -1.9516 H           1 GMY       0.0852
     53 H13        23.9518  -34.5536   -2.1587 H           1 GMY       0.0741
     54 H14        24.9518  -36.0525   -3.4834 H           1 GMY       0.0436
     55 H15        27.1668  -34.3302   -3.7761 H           1 GMY       0.0539
     56 H16        30.2544  -35.1020   -5.3592 H           1 GMY       0.2392
     57 H17        25.1798  -31.1454   -9.0441 H           1 GMY       0.0581
     58 H18        26.8892  -30.8869   -9.4145 H           1 GMY       0.0581
     59 H19        26.3739  -31.2182   -7.7472 H           1 GMY       0.0581
     60 H20        24.8264  -37.2127   -6.0727 H           1 GMY       0.0234
     61 H21        23.4078  -37.2635   -7.1347 H           1 GMY       0.0234
     62 H22        23.2810  -36.5851   -5.5045 H           1 GMY       0.0234
     63 H23        19.1758  -35.6409   -6.6556 H           1 GMY       0.0524
     64 H24        20.1319  -34.8282   -7.9035 H           1 GMY       0.0524
     65 H25        19.2749  -33.8754   -6.6628 H           1 GMY       0.0524
     66 H26        20.8511  -31.1945   -7.2065 H           1 GMY       0.2101
     67 H27        23.6066  -29.4679   -5.6424 H           1 GMY       0.0247
     68 H28        21.8811  -29.7450   -5.3605 H           1 GMY       0.0247
     69 H29        22.5500  -29.8637   -6.9891 H           1 GMY       0.0247
     70 H30        25.8691  -30.8504   -5.2299 H           1 GMY       0.0376
     71 H31        25.8390  -32.6239   -5.3826 H           1 GMY       0.0376
     72 H32        26.7854  -31.8548   -4.1197 H           1 GMY       0.0376
     73 H33        26.1487  -27.8414   -0.7531 H           1 GMY       0.1831
     74 H34        27.2169  -28.8021   -1.6126 H           1 GMY       0.1831
     75 H35        25.8139  -33.8470    1.5098 H           1 GMY       0.0527
     76 H36        26.9090  -34.3438    0.2175 H           1 GMY       0.0527
     77 H37        25.2904  -35.0823    0.3459 H           1 GMY       0.0527
     78 H38        26.2970  -37.8808   -3.3646 H           1 GMY       0.0384
     79 H39        28.0020  -38.1983   -3.1183 H           1 GMY       0.0384
     80 H40        27.3342  -38.1966   -4.7507 H           1 GMY       0.0384
@<TRIPOS>BOND
     1     1     2   1
     2     1     6   2
     3     1     7   1
     4     2     3   1
     5     2    23   2
     6     3     4   2
     7     3    22   1
     8     4     5   1
     9     5     6   1
    10     5    24   2
    11     6    25   1
    12     7     8   1
    13     8     9   1
    14     8    27   1
    15     9    10   1
    16    10    11   1
    17    10    28   1
    18    11    12   1
    19    11    30   1
    20    12    13   1
    21    12    31   1
    22    13    14   2
    23    14    15   1
    24    14    32   1
    25    15    16   1
    26    15    33   1
    27    16    17   1
    28    16    37   1
    29    17    18   2
    30    18    19   1
    31    19    20   2
    32    20    21   1
    33    20    39   1
    34    21    22  am
    35    21    40   2
    36    25    26   1
    37    28    29   1
    38    33    34   1
    39    34    35   2
    40    34    36  am
    41    37    38   1
    42     4    41   1
    43     7    42   1
    44     7    43   1
    45     8    44   1
    46     9    45   1
    47     9    46   1
    48    10    47   1
    49    11    48   1
    50    12    49   1
    51    13    50   1
    52    15    51   1
    53    16    52   1
    54    17    53   1
    55    18    54   1
    56    19    55   1
    57    22    56   1
    58    26    57   1
    59    26    58   1
    60    26    59   1
    61    27    60   1
    62    27    61   1
    63    27    62   1
    64    29    63   1
    65    29    64   1
    66    29    65   1
    67    30    66   1
    68    31    67   1
    69    31    68   1
    70    31    69   1
    71    32    70   1
    72    32    71   1
    73    32    72   1
    74    36    73   1
    75    36    74   1
    76    38    75   1
    77    38    76   1
    78    38    77   1
    79    39    78   1
    80    39    79   1
    81    39    80   1
@<TRIPOS>SUBSTRUCTURE
     1  GMY      1

