@<TRIPOS>MOLECULE
2yge_ligand_039
    80    81
SMALL
GAST_HUCK
****
This file was generated by PARSER (from files_GN.cpp)

@<TRIPOS>ATOM
      1 C1         26.5558  -32.6352   -8.7957 C.2         1 GMY       0.0496
      2 C2         25.6313  -33.6684   -8.6482 C.2         1 GMY       0.1905
      3 C3         25.8561  -34.9148   -9.2061 C.2         1 GMY       0.1367
      4 C4         26.9487  -35.0843   -9.9858 C.2         1 GMY       0.0078
      5 C5         27.8553  -34.0777  -10.1590 C.2         1 GMY       0.1522
      6 C6         27.6371  -32.8373   -9.6004 C.2         1 GMY       0.1484
      7 C7         26.3742  -31.3875   -8.0268 C.3         1 GMY      -0.0163
      8 C8         26.7119  -31.5550   -6.5024 C.3         1 GMY      -0.0344
      9 C9         28.2606  -31.6321   -6.2835 C.3         1 GMY      -0.0200
     10 C10        28.7652  -32.2023   -4.9207 C.3         1 GMY       0.0859
     11 C11        30.3037  -32.5304   -4.8976 C.3         1 GMY       0.0868
     12 C12        30.7140  -33.8924   -5.5500 C.3         1 GMY      -0.0094
     13 C13        30.1504  -35.0385   -4.8320 C.2         1 GMY      -0.1006
     14 C14        29.4773  -36.0937   -5.3466 C.2         1 GMY      -0.0457
     15 C15        29.0419  -37.1952   -4.4525 C.3         1 GMY       0.1504
     16 C16        27.4885  -37.3545   -4.2973 C.3         1 GMY       0.1288
     17 C17        26.8084  -36.0779   -4.0916 C.2         1 GMY      -0.0424
     18 C18        25.9120  -35.4996   -4.9140 C.2         1 GMY      -0.0729
     19 C19        25.6083  -35.9369   -6.1607 C.2         1 GMY      -0.0656
     20 C20        24.3940  -35.9670   -6.7531 C.2         1 GMY       0.0245
     21 C21        24.3151  -36.4066   -8.0501 C.2         1 GMY       0.2316
     22 N22        25.0299  -35.9744   -9.0857 N.am        1 GMY      -0.2158
     23 O23        24.5382  -33.4399   -8.1417 O.2         1 GMY      -0.3575
     24 O24        28.8964  -34.3108  -10.7644 O.2         1 GMY      -0.3865
     25 O25        28.5981  -31.8978   -9.7365 O.3         1 GMY      -0.3151
     26 C26        28.3428  -30.9301  -10.7718 C.3         1 GMY       0.0602
     27 C27        26.0355  -30.4204   -5.6770 C.3         1 GMY      -0.0609
     28 O28        28.3610  -31.4216   -3.7704 O.3         1 GMY      -0.3771
     29 C29        28.6027  -30.0041   -3.7036 C.3         1 GMY       0.0369
     30 O30        31.0429  -31.4847   -5.5350 O.3         1 GMY      -0.3877
     31 C31        32.2588  -34.0761   -5.5994 C.3         1 GMY      -0.0567
     32 C32        29.2195  -36.1985   -6.7850 C.3         1 GMY      -0.0373
     33 O33        29.5879  -38.4219   -4.9851 O.3         1 GMY      -0.2436
     34 C34        30.6674  -39.1304   -4.5635 C.2         1 GMY       0.3194
     35 O35        31.4237  -38.7430   -3.5100 O.2         1 GMY      -0.3776
     36 N36        30.9787  -40.2672   -5.2055 N.am        1 GMY      -0.2762
     37 O37        27.0720  -38.1386   -3.1526 O.3         1 GMY      -0.3598
     38 C38        27.6221  -39.4505   -2.9533 C.3         1 GMY       0.0406
     39 C39        23.1408  -35.6115   -6.0848 C.3         1 GMY      -0.0273
     40 O40        23.6568  -37.4139   -8.2642 O.2         1 GMY      -0.3753
     41 H1         27.1267  -35.9672  -10.4104 H           1 GMY       0.0327
     42 H2         25.3370  -31.0610   -8.1462 H           1 GMY       0.0392
     43 H3         26.9763  -30.5679   -8.4367 H           1 GMY       0.0392
     44 H4         26.2709  -32.4947   -6.1517 H           1 GMY       0.0317
     45 H5         28.6900  -30.6424   -6.4500 H           1 GMY       0.0295
     46 H6         28.6748  -32.2811   -7.0549 H           1 GMY       0.0295
     47 H7         28.2354  -33.1469   -4.7815 H           1 GMY       0.0623
     48 H8         30.6284  -32.5571   -3.8557 H           1 GMY       0.0637
     49 H9         30.3780  -33.8619   -6.5871 H           1 GMY       0.0398
     50 H10        30.3281  -35.0433   -3.8527 H           1 GMY       0.0247
     51 H11        29.4388  -37.0516   -3.4393 H           1 GMY       0.0853
     52 H12        27.1082  -37.8604   -5.1903 H           1 GMY       0.0852
     53 H13        27.0176  -35.5972   -3.2413 H           1 GMY       0.0741
     54 H14        25.5050  -34.6444   -4.6120 H           1 GMY       0.0436
     55 H15        26.3845  -36.2419   -6.6971 H           1 GMY       0.0539
     56 H16        25.0139  -36.5627   -9.8601 H           1 GMY       0.2392
     57 H17        29.1983  -30.2554  -10.8241 H           1 GMY       0.0581
     58 H18        27.4544  -30.3358  -10.5404 H           1 GMY       0.0581
     59 H19        28.2243  -31.4061  -11.7516 H           1 GMY       0.0581
     60 H20        24.9583  -30.4149   -5.8661 H           1 GMY       0.0234
     61 H21        26.4442  -29.4487   -5.9544 H           1 GMY       0.0234
     62 H22        26.1786  -30.5668   -4.6084 H           1 GMY       0.0234
     63 H23        28.2253  -29.6544   -2.7419 H           1 GMY       0.0524
     64 H24        28.0701  -29.4746   -4.4977 H           1 GMY       0.0524
     65 H25        29.6675  -29.7709   -3.7448 H           1 GMY       0.0524
     66 H26        31.2190  -30.8099   -4.8501 H           1 GMY       0.2101
     67 H27        32.5161  -35.0405   -6.0442 H           1 GMY       0.0247
     68 H28        32.6913  -34.0281   -4.5968 H           1 GMY       0.0247
     69 H29        32.7181  -33.2988   -6.2113 H           1 GMY       0.0247
     70 H30        30.1642  -36.2129   -7.3342 H           1 GMY       0.0376
     71 H31        28.6253  -35.3475   -7.1259 H           1 GMY       0.0376
     72 H32        28.6762  -37.1081   -7.0501 H           1 GMY       0.0376
     73 H33        31.7371  -40.7978   -4.9104 H           1 GMY       0.1831
     74 H34        30.4323  -40.5739   -5.9463 H           1 GMY       0.1831
     75 H35        26.9519  -40.0013   -2.2889 H           1 GMY       0.0527
     76 H36        28.5984  -39.3735   -2.4720 H           1 GMY       0.0527
     77 H37        27.7125  -40.0062   -3.8918 H           1 GMY       0.0527
     78 H38        23.2730  -35.2646   -5.0597 H           1 GMY       0.0384
     79 H39        22.4790  -36.4790   -6.0465 H           1 GMY       0.0384
     80 H40        22.6377  -34.8163   -6.6382 H           1 GMY       0.0384
@<TRIPOS>BOND
     1     1     2   1
     2     1     6   2
     3     1     7   1
     4     2     3   1
     5     2    23   2
     6     3     4   2
     7     3    22   1
     8     4     5   1
     9     5     6   1
    10     5    24   2
    11     6    25   1
    12     7     8   1
    13     8     9   1
    14     8    27   1
    15     9    10   1
    16    10    11   1
    17    10    28   1
    18    11    12   1
    19    11    30   1
    20    12    13   1
    21    12    31   1
    22    13    14   2
    23    14    15   1
    24    14    32   1
    25    15    16   1
    26    15    33   1
    27    16    17   1
    28    16    37   1
    29    17    18   2
    30    18    19   1
    31    19    20   2
    32    20    21   1
    33    20    39   1
    34    21    22  am
    35    21    40   2
    36    25    26   1
    37    28    29   1
    38    33    34   1
    39    34    35   2
    40    34    36  am
    41    37    38   1
    42     4    41   1
    43     7    42   1
    44     7    43   1
    45     8    44   1
    46     9    45   1
    47     9    46   1
    48    10    47   1
    49    11    48   1
    50    12    49   1
    51    13    50   1
    52    15    51   1
    53    16    52   1
    54    17    53   1
    55    18    54   1
    56    19    55   1
    57    22    56   1
    58    26    57   1
    59    26    58   1
    60    26    59   1
    61    27    60   1
    62    27    61   1
    63    27    62   1
    64    29    63   1
    65    29    64   1
    66    29    65   1
    67    30    66   1
    68    31    67   1
    69    31    68   1
    70    31    69   1
    71    32    70   1
    72    32    71   1
    73    32    72   1
    74    36    73   1
    75    36    74   1
    76    38    75   1
    77    38    76   1
    78    38    77   1
    79    39    78   1
    80    39    79   1
    81    39    80   1
@<TRIPOS>SUBSTRUCTURE
     1  GMY      1

