@<TRIPOS>MOLECULE
2yge_ligand_022
    80    81
SMALL
GAST_HUCK
****
This file was generated by PARSER (from files_GN.cpp)

@<TRIPOS>ATOM
      1 C1         27.6069  -37.8860   -7.5828 C.2         1 GMY       0.0496
      2 C2         27.2133  -37.4243   -8.8399 C.2         1 GMY       0.1905
      3 C3         25.8754  -37.3122   -9.1711 C.2         1 GMY       0.1367
      4 C4         24.9629  -37.8685   -8.3423 C.2         1 GMY       0.0078
      5 C5         25.3416  -38.4590   -7.1703 C.2         1 GMY       0.1522
      6 C6         26.6537  -38.3827   -6.7417 C.2         1 GMY       0.1484
      7 C7         29.0439  -37.8591   -7.2287 C.3         1 GMY      -0.0163
      8 C8         29.6243  -36.4185   -6.9971 C.3         1 GMY      -0.0344
      9 C9         29.1479  -35.8742   -5.6118 C.3         1 GMY      -0.0200
     10 C10        29.2786  -34.3461   -5.3169 C.3         1 GMY       0.0859
     11 C11        28.6202  -33.9232   -3.9514 C.3         1 GMY       0.0868
     12 C12        27.0574  -33.7871   -3.9598 C.3         1 GMY      -0.0094
     13 C13        26.6786  -32.6825   -4.8418 C.2         1 GMY      -0.1006
     14 C14        25.9321  -32.7204   -5.9723 C.2         1 GMY      -0.0457
     15 C15        25.8034  -31.4919   -6.7866 C.3         1 GMY       0.1504
     16 C16        26.1800  -31.5868   -8.3008 C.3         1 GMY       0.1288
     17 C17        27.5052  -32.1961   -8.4768 C.2         1 GMY      -0.0424
     18 C18        27.7948  -33.3438   -9.1182 C.2         1 GMY      -0.0729
     19 C19        26.8797  -34.2250   -9.5958 C.2         1 GMY      -0.0656
     20 C20        26.9024  -34.9052  -10.7645 C.2         1 GMY       0.0245
     21 C21        25.8556  -35.7462  -11.0478 C.2         1 GMY       0.2316
     22 N22        25.3959  -36.7448  -10.2974 N.am        1 GMY      -0.2158
     23 O23        28.0213  -37.4389   -9.7617 O.2         1 GMY      -0.3575
     24 O24        24.5191  -39.1554   -6.5873 O.2         1 GMY      -0.3865
     25 O25        27.0154  -38.9443   -5.5661 O.3         1 GMY      -0.3151
     26 C26        26.6671  -38.2649   -4.3418 C.3         1 GMY       0.0602
     27 C27        31.1741  -36.4377   -7.1390 C.3         1 GMY      -0.0609
     28 O28        30.6269  -33.8399   -5.4569 O.3         1 GMY      -0.3771
     29 C29        31.5065  -33.8345   -4.3207 C.3         1 GMY       0.0369
     30 O30        29.0210  -34.8498   -2.9393 O.3         1 GMY      -0.3877
     31 C31        26.4245  -33.5280   -2.5623 C.3         1 GMY      -0.0567
     32 C32        25.2766  -33.9641   -6.3743 C.3         1 GMY      -0.0373
     33 O33        24.5433  -30.8395   -6.5728 O.3         1 GMY      -0.2436
     34 C34        23.2559  -31.2315   -6.3924 C.2         1 GMY       0.3194
     35 O35        22.8638  -32.5227   -6.3410 O.2         1 GMY      -0.3776
     36 N36        22.3211  -30.2785   -6.2806 N.am        1 GMY      -0.2762
     37 O37        26.1148  -30.2355   -8.8137 O.3         1 GMY      -0.3598
     38 C38        27.2360  -29.6531   -9.5033 C.3         1 GMY       0.0406
     39 C39        27.9303  -34.7361  -11.7925 C.3         1 GMY      -0.0273
     40 O40        25.1133  -35.4232  -11.9655 O.2         1 GMY      -0.3753
     41 H1         23.9930  -37.8337   -8.5734 H           1 GMY       0.0327
     42 H2         29.5912  -38.3590   -8.0329 H           1 GMY       0.0392
     43 H3         29.2582  -38.4557   -6.3375 H           1 GMY       0.0392
     44 H4         29.2417  -35.7546   -7.7768 H           1 GMY       0.0317
     45 H5         29.6440  -36.4481   -4.8251 H           1 GMY       0.0295
     46 H6         28.0878  -36.0907   -5.5376 H           1 GMY       0.0295
     47 H7         28.7406  -33.8365   -6.1178 H           1 GMY       0.0623
     48 H8         29.0386  -32.9507   -3.6750 H           1 GMY       0.0637
     49 H9         26.6455  -34.7370   -4.2892 H           1 GMY       0.0398
     50 H10        27.0437  -31.7980   -4.5633 H           1 GMY       0.0247
     51 H11        26.4960  -30.7368   -6.4035 H           1 GMY       0.0853
     52 H12        25.4042  -32.1504   -8.8220 H           1 GMY       0.0852
     53 H13        28.2749  -31.6936   -8.0985 H           1 GMY       0.0741
     54 H14        28.7530  -33.6020   -9.1923 H           1 GMY       0.0436
     55 H15        26.1060  -34.3946   -9.0012 H           1 GMY       0.0539
     56 H16        24.5191  -37.0695  -10.5615 H           1 GMY       0.2392
     57 H17        27.1909  -38.7570   -3.5220 H           1 GMY       0.0581
     58 H18        25.5982  -38.3294   -4.1410 H           1 GMY       0.0581
     59 H19        26.9570  -37.2161   -4.3509 H           1 GMY       0.0581
     60 H20        31.4644  -36.8879   -8.0893 H           1 GMY       0.0234
     61 H21        31.6306  -37.0109   -6.3298 H           1 GMY       0.0234
     62 H22        31.5804  -35.4286   -7.1307 H           1 GMY       0.0234
     63 H23        32.5262  -33.7060   -4.6850 H           1 GMY       0.0524
     64 H24        31.4556  -34.7692   -3.7617 H           1 GMY       0.0524
     65 H25        31.2680  -33.0016   -3.6586 H           1 GMY       0.0524
     66 H26        29.2600  -34.3047   -2.1620 H           1 GMY       0.2101
     67 H27        25.3392  -33.4215   -2.6505 H           1 GMY       0.0247
     68 H28        26.8256  -32.6169   -2.1116 H           1 GMY       0.0247
     69 H29        26.6161  -34.3637   -1.8863 H           1 GMY       0.0247
     70 H30        24.5818  -34.2961   -5.5977 H           1 GMY       0.0376
     71 H31        26.0241  -34.7448   -6.5478 H           1 GMY       0.0376
     72 H32        24.7037  -33.8597   -7.2928 H           1 GMY       0.0376
     73 H33        21.3889  -30.5296   -6.1945 H           1 GMY       0.1831
     74 H34        22.5666  -29.3403   -6.3452 H           1 GMY       0.1831
     75 H35        26.9101  -28.7100   -9.9466 H           1 GMY       0.0527
     76 H36        27.6161  -30.3035  -10.2933 H           1 GMY       0.0527
     77 H37        28.0384  -29.4471   -8.7918 H           1 GMY       0.0527
     78 H38        28.7506  -34.0895  -11.4812 H           1 GMY       0.0384
     79 H39        27.4906  -34.2938  -12.6894 H           1 GMY       0.0384
     80 H40        28.3593  -35.7057  -12.0543 H           1 GMY       0.0384
@<TRIPOS>BOND
     1     1     2   1
     2     1     6   2
     3     1     7   1
     4     2     3   1
     5     2    23   2
     6     3     4   2
     7     3    22   1
     8     4     5   1
     9     5     6   1
    10     5    24   2
    11     6    25   1
    12     7     8   1
    13     8     9   1
    14     8    27   1
    15     9    10   1
    16    10    11   1
    17    10    28   1
    18    11    12   1
    19    11    30   1
    20    12    13   1
    21    12    31   1
    22    13    14   2
    23    14    15   1
    24    14    32   1
    25    15    16   1
    26    15    33   1
    27    16    17   1
    28    16    37   1
    29    17    18   2
    30    18    19   1
    31    19    20   2
    32    20    21   1
    33    20    39   1
    34    21    22  am
    35    21    40   2
    36    25    26   1
    37    28    29   1
    38    33    34   1
    39    34    35   2
    40    34    36  am
    41    37    38   1
    42     4    41   1
    43     7    42   1
    44     7    43   1
    45     8    44   1
    46     9    45   1
    47     9    46   1
    48    10    47   1
    49    11    48   1
    50    12    49   1
    51    13    50   1
    52    15    51   1
    53    16    52   1
    54    17    53   1
    55    18    54   1
    56    19    55   1
    57    22    56   1
    58    26    57   1
    59    26    58   1
    60    26    59   1
    61    27    60   1
    62    27    61   1
    63    27    62   1
    64    29    63   1
    65    29    64   1
    66    29    65   1
    67    30    66   1
    68    31    67   1
    69    31    68   1
    70    31    69   1
    71    32    70   1
    72    32    71   1
    73    32    72   1
    74    36    73   1
    75    36    74   1
    76    38    75   1
    77    38    76   1
    78    38    77   1
    79    39    78   1
    80    39    79   1
    81    39    80   1
@<TRIPOS>SUBSTRUCTURE
     1  GMY      1

