@<TRIPOS>MOLECULE
2yge_ligand_041
    80    81
SMALL
GAST_HUCK
****
This file was generated by PARSER (from files_GN.cpp)

@<TRIPOS>ATOM
      1 C1         26.0737  -28.9167   -4.8241 C.2         1 GMY       0.0496
      2 C2         27.4148  -29.1718   -5.0159 C.2         1 GMY       0.1905
      3 C3         28.2589  -29.4180   -3.9532 C.2         1 GMY       0.1367
      4 C4         27.7656  -29.3093   -2.6875 C.2         1 GMY       0.0078
      5 C5         26.4378  -29.0720   -2.4846 C.2         1 GMY       0.1522
      6 C6         25.6108  -28.7813   -3.5500 C.2         1 GMY       0.1484
      7 C7         25.1333  -29.1236   -5.9378 C.3         1 GMY      -0.0163
      8 C8         24.7949  -30.6539   -6.1026 C.3         1 GMY      -0.0344
      9 C9         23.2672  -30.9216   -5.8842 C.3         1 GMY      -0.0200
     10 C10        22.8214  -32.4231   -5.7785 C.3         1 GMY       0.0859
     11 C11        22.0284  -32.7708   -4.4692 C.3         1 GMY       0.0868
     12 C12        22.8803  -32.7380   -3.1552 C.3         1 GMY      -0.0094
     13 C13        23.9092  -33.7759   -3.1873 C.2         1 GMY      -0.1006
     14 C14        25.1963  -33.7117   -2.7683 C.2         1 GMY      -0.0457
     15 C15        25.9979  -34.9530   -2.7637 C.3         1 GMY       0.1504
     16 C16        27.2781  -34.8844   -3.6567 C.3         1 GMY       0.1288
     17 C17        27.0186  -34.3563   -5.0051 C.2         1 GMY      -0.0424
     18 C18        27.6202  -33.2951   -5.5941 C.2         1 GMY      -0.0729
     19 C19        28.4503  -32.3971   -4.9900 C.2         1 GMY      -0.0656
     20 C20        29.4148  -31.6486   -5.5631 C.2         1 GMY       0.0245
     21 C21        30.0871  -30.7199   -4.8054 C.2         1 GMY       0.2316
     22 N22        29.5503  -29.7238   -4.0831 N.am        1 GMY      -0.2158
     23 O23        27.9211  -29.0381   -6.1211 O.2         1 GMY      -0.3575
     24 O24        25.9102  -29.1951   -1.3671 O.2         1 GMY      -0.3865
     25 O25        24.2917  -28.5514   -3.3540 O.3         1 GMY      -0.3151
     26 C26        24.0554  -27.2406   -2.7648 C.3         1 GMY       0.0602
     27 C27        25.3528  -31.1576   -7.4623 C.3         1 GMY      -0.0609
     28 O28        21.9277  -32.6749   -6.8972 O.3         1 GMY      -0.3771
     29 C29        22.0158  -33.9782   -7.4987 C.3         1 GMY       0.0369
     30 O30        20.8872  -31.9125   -4.3745 O.3         1 GMY      -0.3877
     31 C31        22.0174  -33.0086   -1.8904 C.3         1 GMY      -0.0567
     32 C32        25.7638  -32.4686   -2.2459 C.3         1 GMY      -0.0373
     33 O33        26.3688  -35.2943   -1.4163 O.3         1 GMY      -0.2436
     34 C34        25.5244  -35.6522   -0.4102 C.2         1 GMY       0.3194
     35 O35        24.1854  -35.7897   -0.5855 O.2         1 GMY      -0.3776
     36 N36        26.0442  -35.9226    0.7853 N.am        1 GMY      -0.2762
     37 O37        27.8122  -36.2310   -3.7308 O.3         1 GMY      -0.3598
     38 C38        29.1667  -36.3787   -4.2104 C.3         1 GMY       0.0406
     39 C39        29.8418  -31.7751   -6.9685 C.3         1 GMY      -0.0273
     40 O40        31.3042  -30.8397   -4.6669 O.2         1 GMY      -0.3753
     41 H1         28.3550  -29.4515   -1.8995 H           1 GMY       0.0327
     42 H2         25.5468  -28.6850   -6.8525 H           1 GMY       0.0392
     43 H3         24.2252  -28.5440   -5.7717 H           1 GMY       0.0392
     44 H4         25.3254  -31.2345   -5.3362 H           1 GMY       0.0317
     45 H5         22.7340  -30.4254   -6.7001 H           1 GMY       0.0295
     46 H6         22.9760  -30.3958   -4.9720 H           1 GMY       0.0295
     47 H7         23.7238  -33.0548   -5.8284 H           1 GMY       0.0623
     48 H8         21.6431  -33.7899   -4.5769 H           1 GMY       0.0637
     49 H9         23.3135  -31.7375   -3.0487 H           1 GMY       0.0398
     50 H10        23.6000  -34.6601   -3.5309 H           1 GMY       0.0247
     51 H11        25.4245  -35.8181   -3.1353 H           1 GMY       0.0853
     52 H12        28.0029  -34.2621   -3.1254 H           1 GMY       0.0852
     53 H13        26.3970  -34.8800   -5.5779 H           1 GMY       0.0741
     54 H14        27.3706  -33.1197   -6.5415 H           1 GMY       0.0436
     55 H15        28.2749  -32.2370   -4.0139 H           1 GMY       0.0539
     56 H16        30.1458  -29.1969   -3.5323 H           1 GMY       0.2392
     57 H17        22.9752  -27.0814   -2.6840 H           1 GMY       0.0581
     58 H18        24.4535  -26.4135   -3.3792 H           1 GMY       0.0581
     59 H19        24.5036  -27.1768   -1.7505 H           1 GMY       0.0581
     60 H20        26.4452  -31.0619   -7.4835 H           1 GMY       0.0234
     61 H21        24.9454  -30.5576   -8.2755 H           1 GMY       0.0234
     62 H22        25.1015  -32.2044   -7.6345 H           1 GMY       0.0234
     63 H23        21.2110  -34.0747   -8.2285 H           1 GMY       0.0524
     64 H24        21.9103  -34.7826   -6.7565 H           1 GMY       0.0524
     65 H25        22.9726  -34.0675   -8.0249 H           1 GMY       0.0524
     66 H26        20.4497  -31.9905   -5.2494 H           1 GMY       0.2101
     67 H27        22.6114  -32.8393   -0.9850 H           1 GMY       0.0247
     68 H28        21.6530  -34.0419   -1.8792 H           1 GMY       0.0247
     69 H29        21.1527  -32.3441   -1.8604 H           1 GMY       0.0247
     70 H30        25.1795  -32.0887   -1.4030 H           1 GMY       0.0376
     71 H31        25.7656  -31.7280   -3.0406 H           1 GMY       0.0376
     72 H32        26.7944  -32.5882   -1.9064 H           1 GMY       0.0376
     73 H33        25.4488  -36.1914    1.5020 H           1 GMY       0.1831
     74 H34        27.0030  -35.8242    0.9460 H           1 GMY       0.1831
     75 H35        29.4470  -37.4269   -4.0729 H           1 GMY       0.0527
     76 H36        29.8584  -35.7497   -3.6318 H           1 GMY       0.0527
     77 H37        29.2337  -36.1327   -5.2785 H           1 GMY       0.0527
     78 H38        29.3057  -32.5363   -7.5182 H           1 GMY       0.0384
     79 H39        30.8940  -32.0412   -7.0101 H           1 GMY       0.0384
     80 H40        29.6993  -30.8310   -7.4876 H           1 GMY       0.0384
@<TRIPOS>BOND
     1     1     2   1
     2     1     6   2
     3     1     7   1
     4     2     3   1
     5     2    23   2
     6     3     4   2
     7     3    22   1
     8     4     5   1
     9     5     6   1
    10     5    24   2
    11     6    25   1
    12     7     8   1
    13     8     9   1
    14     8    27   1
    15     9    10   1
    16    10    11   1
    17    10    28   1
    18    11    12   1
    19    11    30   1
    20    12    13   1
    21    12    31   1
    22    13    14   2
    23    14    15   1
    24    14    32   1
    25    15    16   1
    26    15    33   1
    27    16    17   1
    28    16    37   1
    29    17    18   2
    30    18    19   1
    31    19    20   2
    32    20    21   1
    33    20    39   1
    34    21    22  am
    35    21    40   2
    36    25    26   1
    37    28    29   1
    38    33    34   1
    39    34    35   2
    40    34    36  am
    41    37    38   1
    42     4    41   1
    43     7    42   1
    44     7    43   1
    45     8    44   1
    46     9    45   1
    47     9    46   1
    48    10    47   1
    49    11    48   1
    50    12    49   1
    51    13    50   1
    52    15    51   1
    53    16    52   1
    54    17    53   1
    55    18    54   1
    56    19    55   1
    57    22    56   1
    58    26    57   1
    59    26    58   1
    60    26    59   1
    61    27    60   1
    62    27    61   1
    63    27    62   1
    64    29    63   1
    65    29    64   1
    66    29    65   1
    67    30    66   1
    68    31    67   1
    69    31    68   1
    70    31    69   1
    71    32    70   1
    72    32    71   1
    73    32    72   1
    74    36    73   1
    75    36    74   1
    76    38    75   1
    77    38    76   1
    78    38    77   1
    79    39    78   1
    80    39    79   1
    81    39    80   1
@<TRIPOS>SUBSTRUCTURE
     1  GMY      1

