@<TRIPOS>MOLECULE
2yge_ligand_020
    80    81
SMALL
GAST_HUCK
****
This file was generated by PARSER (from files_GN.cpp)

@<TRIPOS>ATOM
      1 C1         22.1095  -34.5511   -4.6931 C.2         1 GMY       0.0496
      2 C2         22.2297  -34.8298   -6.0507 C.2         1 GMY       0.1905
      3 C3         21.7644  -33.9363   -6.9983 C.2         1 GMY       0.1367
      4 C4         20.9909  -32.9035   -6.5948 C.2         1 GMY       0.0078
      5 C5         20.7823  -32.6629   -5.2655 C.2         1 GMY       0.1522
      6 C6         21.3619  -33.4759   -4.3086 C.2         1 GMY       0.1484
      7 C7         22.8568  -35.3827   -3.7354 C.3         1 GMY      -0.0163
      8 C8         24.3915  -35.0337   -3.7126 C.3         1 GMY      -0.0344
      9 C9         24.7033  -33.9491   -2.6226 C.3         1 GMY      -0.0200
     10 C10        26.0392  -33.1576   -2.7673 C.3         1 GMY       0.0859
     11 C11        26.0579  -31.8373   -1.9190 C.3         1 GMY       0.0868
     12 C12        25.3133  -30.6320   -2.5808 C.3         1 GMY      -0.0094
     13 C13        26.0084  -30.2316   -3.8065 C.2         1 GMY      -0.1006
     14 C14        25.5843  -30.3129   -5.0900 C.2         1 GMY      -0.0457
     15 C15        26.5372  -29.9662   -6.1710 C.3         1 GMY       0.1504
     16 C16        26.5982  -30.8982   -7.4289 C.3         1 GMY       0.1288
     17 C17        26.8828  -32.2845   -7.0466 C.2         1 GMY      -0.0424
     18 C18        26.1341  -33.3875   -7.2375 C.2         1 GMY      -0.0729
     19 C19        24.9108  -33.4566   -7.8333 C.2         1 GMY      -0.0656
     20 C20        24.3529  -34.5289   -8.4462 C.2         1 GMY       0.0245
     21 C21        23.0867  -34.4072   -8.9694 C.2         1 GMY       0.2316
     22 N22        21.9789  -34.0654   -8.3151 N.am        1 GMY      -0.2158
     23 O23        22.5007  -35.9624   -6.4208 O.2         1 GMY      -0.3575
     24 O24        20.0925  -31.7084   -4.9283 O.2         1 GMY      -0.3865
     25 O25        21.3310  -33.0961   -3.0139 O.3         1 GMY      -0.3151
     26 C26        20.0210  -33.1334   -2.4058 C.3         1 GMY       0.0602
     27 C27        25.2742  -36.3147   -3.5431 C.3         1 GMY      -0.0609
     28 O28        27.1236  -34.0153   -2.3418 O.3         1 GMY      -0.3771
     29 C29        28.2296  -34.1276   -3.2707 C.3         1 GMY       0.0369
     30 O30        25.5574  -32.0836   -0.6015 O.3         1 GMY      -0.3877
     31 C31        25.2138  -29.4026   -1.6324 C.3         1 GMY      -0.0567
     32 C32        24.2138  -30.7205   -5.3964 C.3         1 GMY      -0.0373
     33 O33        26.4103  -28.5775   -6.5188 O.3         1 GMY      -0.2436
     34 C34        25.3876  -27.8301   -6.9982 C.2         1 GMY       0.3194
     35 O35        24.1738  -28.3567   -7.2782 O.2         1 GMY      -0.3776
     36 N36        25.5982  -26.5254   -7.2130 N.am        1 GMY      -0.2762
     37 O37        27.6980  -30.4084   -8.2319 O.3         1 GMY      -0.3598
     38 C38        27.5530  -30.4808   -9.6585 C.3         1 GMY       0.0406
     39 C39        25.0245  -35.8098   -8.6853 C.3         1 GMY      -0.0273
     40 O40        22.9751  -34.4526  -10.1837 O.2         1 GMY      -0.3753
     41 H1         20.6131  -32.2738   -7.2711 H           1 GMY       0.0327
     42 H2         22.7085  -36.4384   -3.9932 H           1 GMY       0.0392
     43 H3         22.4534  -35.2990   -2.7218 H           1 GMY       0.0392
     44 H4         24.6753  -34.6164   -4.6885 H           1 GMY       0.0317
     45 H5         24.6560  -34.4246   -1.6354 H           1 GMY       0.0295
     46 H6         23.8914  -33.2227   -2.6668 H           1 GMY       0.0295
     47 H7         26.1350  -32.9126   -3.8332 H           1 GMY       0.0623
     48 H8         27.0971  -31.5494   -1.7820 H           1 GMY       0.0637
     49 H9         24.2888  -30.9400   -2.7728 H           1 GMY       0.0398
     50 H10        26.9342  -29.8990   -3.6491 H           1 GMY       0.0247
     51 H11        27.5548  -30.0090   -5.7702 H           1 GMY       0.0853
     52 H12        25.6621  -30.8013   -7.9899 H           1 GMY       0.0852
     53 H13        27.7398  -32.4259   -6.5682 H           1 GMY       0.0741
     54 H14        26.4928  -34.2322   -6.8496 H           1 GMY       0.0436
     55 H15        24.3553  -32.6417   -7.7766 H           1 GMY       0.0539
     56 H16        21.2379  -33.7915   -8.8806 H           1 GMY       0.2392
     57 H17        20.1395  -32.9321   -1.3349 H           1 GMY       0.0581
     58 H18        19.5421  -34.1173   -2.5079 H           1 GMY       0.0581
     59 H19        19.3690  -32.3606   -2.8361 H           1 GMY       0.0581
     60 H20        25.0197  -37.0494   -4.3251 H           1 GMY       0.0234
     61 H21        25.1028  -36.7774   -2.5582 H           1 GMY       0.0234
     62 H22        26.3454  -36.0650   -3.6490 H           1 GMY       0.0234
     63 H23        29.0641  -34.6280   -2.7644 H           1 GMY       0.0524
     64 H24        28.5854  -33.1450   -3.6192 H           1 GMY       0.0524
     65 H25        27.9265  -34.7389   -4.1323 H           1 GMY       0.0524
     66 H26        24.6611  -32.4657   -0.7247 H           1 GMY       0.2101
     67 H27        24.7142  -28.5709   -2.1322 H           1 GMY       0.0247
     68 H28        26.2048  -29.0663   -1.3185 H           1 GMY       0.0247
     69 H29        24.6345  -29.6462   -0.7378 H           1 GMY       0.0247
     70 H30        23.5046  -30.0675   -4.8822 H           1 GMY       0.0376
     71 H31        24.0443  -31.7535   -5.0728 H           1 GMY       0.0376
     72 H32        23.9747  -30.6634   -6.4568 H           1 GMY       0.0376
     73 H33        24.8874  -25.9675   -7.5657 H           1 GMY       0.1831
     74 H34        26.4713  -26.1395   -7.0229 H           1 GMY       0.1831
     75 H35        28.4903  -30.1547  -10.1178 H           1 GMY       0.0527
     76 H36        26.7568  -29.8079   -9.9886 H           1 GMY       0.0527
     77 H37        27.3411  -31.5014   -9.9854 H           1 GMY       0.0527
     78 H38        26.0423  -35.8602   -8.3044 H           1 GMY       0.0384
     79 H39        25.0840  -36.0109   -9.7578 H           1 GMY       0.0384
     80 H40        24.4607  -36.6191   -8.2155 H           1 GMY       0.0384
@<TRIPOS>BOND
     1     1     2   1
     2     1     6   2
     3     1     7   1
     4     2     3   1
     5     2    23   2
     6     3     4   2
     7     3    22   1
     8     4     5   1
     9     5     6   1
    10     5    24   2
    11     6    25   1
    12     7     8   1
    13     8     9   1
    14     8    27   1
    15     9    10   1
    16    10    11   1
    17    10    28   1
    18    11    12   1
    19    11    30   1
    20    12    13   1
    21    12    31   1
    22    13    14   2
    23    14    15   1
    24    14    32   1
    25    15    16   1
    26    15    33   1
    27    16    17   1
    28    16    37   1
    29    17    18   2
    30    18    19   1
    31    19    20   2
    32    20    21   1
    33    20    39   1
    34    21    22  am
    35    21    40   2
    36    25    26   1
    37    28    29   1
    38    33    34   1
    39    34    35   2
    40    34    36  am
    41    37    38   1
    42     4    41   1
    43     7    42   1
    44     7    43   1
    45     8    44   1
    46     9    45   1
    47     9    46   1
    48    10    47   1
    49    11    48   1
    50    12    49   1
    51    13    50   1
    52    15    51   1
    53    16    52   1
    54    17    53   1
    55    18    54   1
    56    19    55   1
    57    22    56   1
    58    26    57   1
    59    26    58   1
    60    26    59   1
    61    27    60   1
    62    27    61   1
    63    27    62   1
    64    29    63   1
    65    29    64   1
    66    29    65   1
    67    30    66   1
    68    31    67   1
    69    31    68   1
    70    31    69   1
    71    32    70   1
    72    32    71   1
    73    32    72   1
    74    36    73   1
    75    36    74   1
    76    38    75   1
    77    38    76   1
    78    38    77   1
    79    39    78   1
    80    39    79   1
    81    39    80   1
@<TRIPOS>SUBSTRUCTURE
     1  GMY      1

