@<TRIPOS>MOLECULE
2yge_ligand_017
    80    81
SMALL
GAST_HUCK
****
This file was generated by PARSER (from files_GN.cpp)

@<TRIPOS>ATOM
      1 C1         21.2635  -36.0079   -4.0271 C.2         1 GMY       0.0496
      2 C2         20.8772  -35.6006   -5.3039 C.2         1 GMY       0.1905
      3 C3         19.9942  -34.5568   -5.4790 C.2         1 GMY       0.1367
      4 C4         19.2676  -34.1529   -4.4054 C.2         1 GMY       0.0078
      5 C5         19.5022  -34.6709   -3.1695 C.2         1 GMY       0.1522
      6 C6         20.5793  -35.5026   -2.9531 C.2         1 GMY       0.1484
      7 C7         22.3604  -36.9801   -3.8855 C.3         1 GMY      -0.0163
      8 C8         23.7789  -36.4142   -4.2833 C.3         1 GMY      -0.0344
      9 C9         24.8249  -36.6256   -3.1418 C.3         1 GMY      -0.0200
     10 C10        26.1655  -35.8120   -3.2690 C.3         1 GMY       0.0859
     11 C11        26.3843  -34.7573   -2.1319 C.3         1 GMY       0.0868
     12 C12        25.4280  -33.5139   -2.1722 C.3         1 GMY      -0.0094
     13 C13        25.6856  -32.6457   -3.3238 C.2         1 GMY      -0.1006
     14 C14        24.7878  -31.8708   -3.9824 C.2         1 GMY      -0.0457
     15 C15        25.2643  -30.8845   -4.9790 C.3         1 GMY       0.1504
     16 C16        24.7141  -31.1311   -6.4304 C.3         1 GMY       0.1288
     17 C17        24.9384  -32.5240   -6.8276 C.2         1 GMY      -0.0424
     18 C18        24.0302  -33.4816   -7.0982 C.2         1 GMY      -0.0729
     19 C19        22.6742  -33.3574   -7.0844 C.2         1 GMY      -0.0656
     20 C20        21.7964  -33.9976   -7.8966 C.2         1 GMY       0.0245
     21 C21        20.4578  -33.7593   -7.7357 C.2         1 GMY       0.2316
     22 N22        19.7141  -33.9600   -6.6514 N.am        1 GMY      -0.2158
     23 O23        20.9690  -36.3975   -6.2320 O.2         1 GMY      -0.3575
     24 O24        18.7021  -34.4226   -2.2680 O.2         1 GMY      -0.3865
     25 O25        20.8995  -35.8608   -1.6964 O.3         1 GMY      -0.3151
     26 C26        21.4920  -34.8327   -0.8789 C.3         1 GMY       0.0602
     27 C27        24.2742  -37.0191   -5.6299 C.3         1 GMY      -0.0609
     28 O28        27.3195  -36.6823   -3.2081 O.3         1 GMY      -0.3771
     29 C29        27.5399  -37.6039   -4.2880 C.3         1 GMY       0.0369
     30 O30        26.3320  -35.4037   -0.8546 O.3         1 GMY      -0.3877
     31 C31        25.5106  -32.6535   -0.8768 C.3         1 GMY      -0.0567
     32 C32        23.3516  -31.9417   -3.6937 C.3         1 GMY      -0.0373
     33 O33        24.9376  -29.5585   -4.5014 O.3         1 GMY      -0.2436
     34 C34        25.4138  -28.9593   -3.3725 C.2         1 GMY       0.3194
     35 O35        26.3037  -29.5741   -2.5605 O.2         1 GMY      -0.3776
     36 N36        24.9860  -27.7329   -3.0271 N.am        1 GMY      -0.2762
     37 O37        25.3914  -30.3701   -7.4541 O.3         1 GMY      -0.3598
     38 C38        25.2795  -28.9366   -7.4377 C.3         1 GMY       0.0406
     39 C39        22.1747  -34.8567   -9.0236 C.3         1 GMY      -0.0273
     40 O40        19.8861  -33.1707   -8.6424 O.2         1 GMY      -0.3753
     41 H1         18.5954  -33.4223   -4.5025 H           1 GMY       0.0327
     42 H2         22.1194  -37.8668   -4.4830 H           1 GMY       0.0392
     43 H3         22.3937  -37.3679   -2.8663 H           1 GMY       0.0392
     44 H4         23.6992  -35.3340   -4.4320 H           1 GMY       0.0317
     45 H5         25.0453  -37.6910   -3.0620 H           1 GMY       0.0295
     46 H6         24.3437  -36.3577   -2.2027 H           1 GMY       0.0295
     47 H7         26.1954  -35.2609   -4.2123 H           1 GMY       0.0623
     48 H8         27.4108  -34.3856   -2.2185 H           1 GMY       0.0637
     49 H9         24.4164  -33.9048   -2.2358 H           1 GMY       0.0398
     50 H10        26.6467  -32.5292   -3.5602 H           1 GMY       0.0247
     51 H11        26.3590  -30.9069   -5.0811 H           1 GMY       0.0853
     52 H12        23.6520  -30.8767   -6.4689 H           1 GMY       0.0852
     53 H13        25.8924  -32.8100   -6.8724 H           1 GMY       0.0741
     54 H14        24.3947  -34.3879   -7.2934 H           1 GMY       0.0436
     55 H15        22.2977  -32.7443   -6.3969 H           1 GMY       0.0539
     56 H16        18.8246  -33.5727   -6.7045 H           1 GMY       0.2392
     57 H17        21.8682  -35.2885    0.0370 H           1 GMY       0.0581
     58 H18        20.7561  -34.0751   -0.6059 H           1 GMY       0.0581
     59 H19        22.3282  -34.3486   -1.3760 H           1 GMY       0.0581
     60 H20        23.5497  -36.8339   -6.4229 H           1 GMY       0.0234
     61 H21        24.4175  -38.0976   -5.5398 H           1 GMY       0.0234
     62 H22        25.2162  -36.5686   -5.9406 H           1 GMY       0.0234
     63 H23        28.4785  -38.1245   -4.1037 H           1 GMY       0.0524
     64 H24        27.6189  -37.0735   -5.2372 H           1 GMY       0.0524
     65 H25        26.7474  -38.3483   -4.3467 H           1 GMY       0.0524
     66 H26        25.3852  -35.5428   -0.6531 H           1 GMY       0.2101
     67 H27        24.8574  -31.7812   -0.9399 H           1 GMY       0.0247
     68 H28        26.5305  -32.3059   -0.7082 H           1 GMY       0.0247
     69 H29        25.1927  -33.2382   -0.0129 H           1 GMY       0.0247
     70 H30        23.1571  -31.7261   -2.6431 H           1 GMY       0.0376
     71 H31        22.9777  -32.9393   -3.9246 H           1 GMY       0.0376
     72 H32        22.7705  -31.2290   -4.2802 H           1 GMY       0.0376
     73 H33        25.3090  -27.3179   -2.2093 H           1 GMY       0.1831
     74 H34        24.3254  -27.2758   -3.5659 H           1 GMY       0.1831
     75 H35        25.6497  -28.5589   -8.3890 H           1 GMY       0.0527
     76 H36        25.9030  -28.5127   -6.6518 H           1 GMY       0.0527
     77 H37        24.2455  -28.6111   -7.3099 H           1 GMY       0.0527
     78 H38        23.2503  -34.9571   -9.1653 H           1 GMY       0.0384
     79 H39        21.7755  -34.4545   -9.9574 H           1 GMY       0.0384
     80 H40        21.7649  -35.8570   -8.8751 H           1 GMY       0.0384
@<TRIPOS>BOND
     1     1     2   1
     2     1     6   2
     3     1     7   1
     4     2     3   1
     5     2    23   2
     6     3     4   2
     7     3    22   1
     8     4     5   1
     9     5     6   1
    10     5    24   2
    11     6    25   1
    12     7     8   1
    13     8     9   1
    14     8    27   1
    15     9    10   1
    16    10    11   1
    17    10    28   1
    18    11    12   1
    19    11    30   1
    20    12    13   1
    21    12    31   1
    22    13    14   2
    23    14    15   1
    24    14    32   1
    25    15    16   1
    26    15    33   1
    27    16    17   1
    28    16    37   1
    29    17    18   2
    30    18    19   1
    31    19    20   2
    32    20    21   1
    33    20    39   1
    34    21    22  am
    35    21    40   2
    36    25    26   1
    37    28    29   1
    38    33    34   1
    39    34    35   2
    40    34    36  am
    41    37    38   1
    42     4    41   1
    43     7    42   1
    44     7    43   1
    45     8    44   1
    46     9    45   1
    47     9    46   1
    48    10    47   1
    49    11    48   1
    50    12    49   1
    51    13    50   1
    52    15    51   1
    53    16    52   1
    54    17    53   1
    55    18    54   1
    56    19    55   1
    57    22    56   1
    58    26    57   1
    59    26    58   1
    60    26    59   1
    61    27    60   1
    62    27    61   1
    63    27    62   1
    64    29    63   1
    65    29    64   1
    66    29    65   1
    67    30    66   1
    68    31    67   1
    69    31    68   1
    70    31    69   1
    71    32    70   1
    72    32    71   1
    73    32    72   1
    74    36    73   1
    75    36    74   1
    76    38    75   1
    77    38    76   1
    78    38    77   1
    79    39    78   1
    80    39    79   1
    81    39    80   1
@<TRIPOS>SUBSTRUCTURE
     1  GMY      1

