@<TRIPOS>MOLECULE
2yge_ligand_005
    80    81
SMALL
GAST_HUCK
****
This file was generated by PARSER (from files_GN.cpp)

@<TRIPOS>ATOM
      1 C1         28.4376  -34.2477   -5.3010 C.2         1 GMY       0.0496
      2 C2         28.0541  -34.0750   -6.6193 C.2         1 GMY       0.1905
      3 C3         27.6859  -35.1610   -7.3886 C.2         1 GMY       0.1367
      4 C4         28.0092  -36.3997   -6.9539 C.2         1 GMY       0.0078
      5 C5         28.5663  -36.5812   -5.7155 C.2         1 GMY       0.1522
      6 C6         28.7625  -35.5010   -4.8766 C.2         1 GMY       0.1484
      7 C7         28.3745  -33.0894   -4.3970 C.3         1 GMY      -0.0163
      8 C8         26.8971  -32.7082   -3.9867 C.3         1 GMY      -0.0344
      9 C9         26.6808  -32.8456   -2.4436 C.3         1 GMY      -0.0200
     10 C10        25.2148  -32.7887   -1.8877 C.3         1 GMY       0.0859
     11 C11        24.7800  -34.0746   -1.1074 C.3         1 GMY       0.0868
     12 C12        24.6460  -35.3885   -1.9589 C.3         1 GMY      -0.0094
     13 C13        23.5276  -35.3147   -2.9119 C.2         1 GMY      -0.1006
     14 C14        23.4258  -35.8908   -4.1359 C.2         1 GMY      -0.0457
     15 C15        22.1346  -35.8572   -4.8619 C.3         1 GMY       0.1504
     16 C16        22.1099  -34.9169   -6.1118 C.3         1 GMY       0.1288
     17 C17        22.7307  -33.6150   -5.8288 C.2         1 GMY      -0.0424
     18 C18        23.8609  -33.1247   -6.3699 C.2         1 GMY      -0.0729
     19 C19        24.6894  -33.7885   -7.2224 C.2         1 GMY      -0.0656
     20 C20        25.4852  -33.2736   -8.1867 C.2         1 GMY       0.0245
     21 C21        26.1737  -34.1513   -8.9870 C.2         1 GMY       0.2316
     22 N22        27.0669  -35.0510   -8.5789 N.am        1 GMY      -0.2158
     23 O23        28.4178  -33.0678   -7.2122 O.2         1 GMY      -0.3575
     24 O24        28.7921  -37.7204   -5.3259 O.2         1 GMY      -0.3865
     25 O25        29.1573  -35.7263   -3.6084 O.3         1 GMY      -0.3151
     26 C26        30.5837  -35.8119   -3.4461 C.3         1 GMY       0.0602
     27 C27        26.5255  -31.2913   -4.5074 C.3         1 GMY      -0.0609
     28 O28        25.0486  -31.7150   -0.9303 O.3         1 GMY      -0.3771
     29 C29        25.1232  -30.3641   -1.4056 C.3         1 GMY       0.0369
     30 O30        25.6473  -34.2676    0.0178 O.3         1 GMY      -0.3877
     31 C31        24.4112  -36.6329   -1.0566 C.3         1 GMY      -0.0567
     32 C32        24.5729  -36.5593   -4.7581 C.3         1 GMY      -0.0373
     33 O33        21.7666  -37.2360   -5.1063 O.3         1 GMY      -0.2436
     34 C34        21.1593  -37.9195   -6.1206 C.2         1 GMY       0.3194
     35 O35        20.6693  -37.3094   -7.2303 O.2         1 GMY      -0.3776
     36 N36        21.0524  -39.2535   -6.0085 N.am        1 GMY      -0.2762
     37 O37        20.7175  -34.7709   -6.5012 O.3         1 GMY      -0.3598
     38 C38        20.4271  -33.8957   -7.6193 C.3         1 GMY       0.0406
     39 C39        25.6103  -31.8515   -8.5023 C.3         1 GMY      -0.0273
     40 O40        25.7695  -34.2945  -10.1320 O.2         1 GMY      -0.3753
     41 H1         27.7896  -37.1985   -7.5100 H           1 GMY       0.0327
     42 H2         28.8779  -32.2408   -4.8686 H           1 GMY       0.0392
     43 H3         28.9767  -33.2670   -3.5018 H           1 GMY       0.0392
     44 H4         26.1962  -33.4058   -4.4568 H           1 GMY       0.0317
     45 H5         27.2769  -32.0721   -1.9561 H           1 GMY       0.0295
     46 H6         27.1308  -33.8002   -2.1576 H           1 GMY       0.0295
     47 H7         24.5087  -32.6547   -2.7092 H           1 GMY       0.0623
     48 H8         23.7982  -33.8690   -0.6672 H           1 GMY       0.0637
     49 H9         25.5865  -35.5463   -2.4847 H           1 GMY       0.0398
     50 H10        22.7065  -34.8794   -2.5559 H           1 GMY       0.0247
     51 H11        21.3454  -35.4916   -4.1981 H           1 GMY       0.0853
     52 H12        22.6163  -35.4344   -6.9255 H           1 GMY       0.0852
     53 H13        22.2519  -33.0370   -5.1713 H           1 GMY       0.0741
     54 H14        24.1278  -32.2195   -6.0751 H           1 GMY       0.0436
     55 H15        24.7240  -34.7744   -7.0952 H           1 GMY       0.0539
     56 H16        27.2648  -35.7572   -9.2174 H           1 GMY       0.2392
     57 H17        30.8024  -35.9194   -2.3846 H           1 GMY       0.0581
     58 H18        31.0898  -34.9140   -3.8055 H           1 GMY       0.0581
     59 H19        30.9835  -36.6842   -3.9620 H           1 GMY       0.0581
     60 H20        26.6624  -31.2401   -5.5900 H           1 GMY       0.0234
     61 H21        27.1617  -30.5336   -4.0419 H           1 GMY       0.0234
     62 H22        25.4830  -31.0551   -4.2912 H           1 GMY       0.0234
     63 H23        24.8429  -29.6959   -0.5904 H           1 GMY       0.0524
     64 H24        24.4309  -30.2025   -2.2311 H           1 GMY       0.0524
     65 H25        26.1349  -30.1093   -1.7191 H           1 GMY       0.0524
     66 H26        26.5535  -34.0272   -0.2794 H           1 GMY       0.2101
     67 H27        24.3101  -37.5336   -1.6648 H           1 GMY       0.0247
     68 H28        23.5037  -36.5100   -0.4596 H           1 GMY       0.0247
     69 H29        25.2523  -36.7824   -0.3801 H           1 GMY       0.0247
     70 H30        24.8974  -37.4012   -4.1427 H           1 GMY       0.0376
     71 H31        25.4038  -35.8575   -4.8704 H           1 GMY       0.0376
     72 H32        24.3358  -36.9487   -5.7522 H           1 GMY       0.0376
     73 H33        20.6287  -39.7599   -6.7121 H           1 GMY       0.1831
     74 H34        21.4197  -39.7033   -5.2342 H           1 GMY       0.1831
     75 H35        19.3830  -34.0536   -7.9007 H           1 GMY       0.0527
     76 H36        21.0579  -34.1322   -8.4877 H           1 GMY       0.0527
     77 H37        20.5570  -32.8397   -7.3462 H           1 GMY       0.0527
     78 H38        25.0890  -31.1950   -7.8079 H           1 GMY       0.0384
     79 H39        25.1989  -31.6644   -9.4910 H           1 GMY       0.0384
     80 H40        26.6612  -31.5575   -8.5028 H           1 GMY       0.0384
@<TRIPOS>BOND
     1     1     2   1
     2     1     6   2
     3     1     7   1
     4     2     3   1
     5     2    23   2
     6     3     4   2
     7     3    22   1
     8     4     5   1
     9     5     6   1
    10     5    24   2
    11     6    25   1
    12     7     8   1
    13     8     9   1
    14     8    27   1
    15     9    10   1
    16    10    11   1
    17    10    28   1
    18    11    12   1
    19    11    30   1
    20    12    13   1
    21    12    31   1
    22    13    14   2
    23    14    15   1
    24    14    32   1
    25    15    16   1
    26    15    33   1
    27    16    17   1
    28    16    37   1
    29    17    18   2
    30    18    19   1
    31    19    20   2
    32    20    21   1
    33    20    39   1
    34    21    22  am
    35    21    40   2
    36    25    26   1
    37    28    29   1
    38    33    34   1
    39    34    35   2
    40    34    36  am
    41    37    38   1
    42     4    41   1
    43     7    42   1
    44     7    43   1
    45     8    44   1
    46     9    45   1
    47     9    46   1
    48    10    47   1
    49    11    48   1
    50    12    49   1
    51    13    50   1
    52    15    51   1
    53    16    52   1
    54    17    53   1
    55    18    54   1
    56    19    55   1
    57    22    56   1
    58    26    57   1
    59    26    58   1
    60    26    59   1
    61    27    60   1
    62    27    61   1
    63    27    62   1
    64    29    63   1
    65    29    64   1
    66    29    65   1
    67    30    66   1
    68    31    67   1
    69    31    68   1
    70    31    69   1
    71    32    70   1
    72    32    71   1
    73    32    72   1
    74    36    73   1
    75    36    74   1
    76    38    75   1
    77    38    76   1
    78    38    77   1
    79    39    78   1
    80    39    79   1
    81    39    80   1
@<TRIPOS>SUBSTRUCTURE
     1  GMY      1

