@<TRIPOS>MOLECULE
2yge_ligand_061
    80    81
SMALL
GAST_HUCK
****
This file was generated by PARSER (from files_GN.cpp)

@<TRIPOS>ATOM
      1 C1         28.4179  -30.9173   -7.6887 C.2         1 GMY       0.0496
      2 C2         27.6925  -31.6391   -8.6320 C.2         1 GMY       0.1905
      3 C3         28.2659  -32.7010   -9.3076 C.2         1 GMY       0.1367
      4 C4         29.6023  -32.8855   -9.2043 C.2         1 GMY       0.0078
      5 C5         30.3580  -32.1118   -8.3662 C.2         1 GMY       0.1522
      6 C6         29.7633  -31.1237   -7.6085 C.2         1 GMY       0.1484
      7 C7         27.7103  -29.9748   -6.7995 C.3         1 GMY      -0.0163
      8 C8         26.8299  -30.6756   -5.7049 C.3         1 GMY      -0.0344
      9 C9         27.7208  -31.1876   -4.5199 C.3         1 GMY      -0.0200
     10 C10        27.0478  -32.0999   -3.4391 C.3         1 GMY       0.0859
     11 C11        28.0651  -32.7927   -2.4587 C.3         1 GMY       0.0868
     12 C12        28.8171  -34.0505   -3.0238 C.3         1 GMY      -0.0094
     13 C13        27.8786  -35.1253   -3.3650 C.2         1 GMY      -0.1006
     14 C14        27.8058  -35.8471   -4.5113 C.2         1 GMY      -0.0457
     15 C15        26.7661  -36.8914   -4.6568 C.3         1 GMY       0.1504
     16 C16        25.7516  -36.6361   -5.8217 C.3         1 GMY       0.1288
     17 C17        25.0993  -35.3233   -5.7322 C.2         1 GMY      -0.0424
     18 C18        25.1548  -34.3202   -6.6290 C.2         1 GMY      -0.0729
     19 C19        25.8830  -34.3232   -7.7749 C.2         1 GMY      -0.0656
     20 C20        25.4840  -33.8967   -8.9968 C.2         1 GMY       0.0245
     21 C21        26.3570  -34.0186  -10.0475 C.2         1 GMY       0.2316
     22 N22        27.5977  -33.5421  -10.1204 N.am        1 GMY      -0.2158
     23 O23        26.6739  -31.1464   -9.1030 O.2         1 GMY      -0.3575
     24 O24        31.5500  -32.3650   -8.2384 O.2         1 GMY      -0.3865
     25 O25        30.5174  -30.4693   -6.7013 O.3         1 GMY      -0.3151
     26 C26        31.0931  -29.2399   -7.1870 C.3         1 GMY       0.0602
     27 C27        25.6825  -29.7192   -5.2585 C.3         1 GMY      -0.0609
     28 O28        25.9718  -31.4607   -2.7099 O.3         1 GMY      -0.3771
     29 C29        26.2434  -30.4069   -1.7683 C.3         1 GMY       0.0369
     30 O30        29.0092  -31.8204   -2.0000 O.3         1 GMY      -0.3877
     31 C31        29.8610  -34.6228   -2.0201 C.3         1 GMY      -0.0567
     32 C32        28.7743  -35.6468   -5.5908 C.3         1 GMY      -0.0373
     33 O33        27.4261  -38.1501   -4.8912 O.3         1 GMY      -0.2436
     34 C34        27.9319  -39.0329   -3.9889 C.2         1 GMY       0.3194
     35 O35        27.8606  -38.8278   -2.6542 O.2         1 GMY      -0.3776
     36 N36        28.5070  -40.1565   -4.4389 N.am        1 GMY      -0.2762
     37 O37        24.7902  -37.7107   -5.9745 O.3         1 GMY      -0.3598
     38 C38        24.9767  -38.7429   -6.9638 C.3         1 GMY       0.0406
     39 C39        24.1457  -33.3786   -9.3002 C.3         1 GMY      -0.0273
     40 O40        26.0466  -34.7846  -10.9507 O.2         1 GMY      -0.3753
     41 H1         30.0444  -33.6215   -9.7120 H           1 GMY       0.0327
     42 H2         27.0932  -29.3274   -7.4308 H           1 GMY       0.0392
     43 H3         28.3958  -29.2894   -6.2969 H           1 GMY       0.0392
     44 H4         26.3438  -31.5453   -6.1575 H           1 GMY       0.0317
     45 H5         28.1781  -30.3264   -4.0266 H           1 GMY       0.0295
     46 H6         28.5338  -31.7670   -4.9608 H           1 GMY       0.0295
     47 H7         26.5392  -32.8930   -3.9916 H           1 GMY       0.0623
     48 H8         27.5061  -33.1170   -1.5750 H           1 GMY       0.0637
     49 H9         29.3803  -33.7224   -3.8978 H           1 GMY       0.0398
     50 H10        27.2397  -35.3564   -2.6382 H           1 GMY       0.0247
     51 H11        26.1747  -36.9715   -3.7389 H           1 GMY       0.0853
     52 H12        26.3216  -36.7042   -6.7459 H           1 GMY       0.0852
     53 H13        24.5607  -35.1544   -4.9124 H           1 GMY       0.0741
     54 H14        24.6533  -33.4894   -6.4110 H           1 GMY       0.0436
     55 H15        26.8119  -34.6710   -7.6891 H           1 GMY       0.0539
     56 H16        28.1292  -33.9170  -10.8424 H           1 GMY       0.2392
     57 H17        31.6434  -28.7767   -6.3666 H           1 GMY       0.0581
     58 H18        30.3224  -28.5374   -7.5173 H           1 GMY       0.0581
     59 H19        31.7936  -29.4230   -8.0061 H           1 GMY       0.0581
     60 H20        25.1232  -29.3635   -6.1264 H           1 GMY       0.0234
     61 H21        26.0887  -28.8567   -4.7220 H           1 GMY       0.0234
     62 H22        24.9713  -30.2358   -4.6175 H           1 GMY       0.0234
     63 H23        25.2881  -30.0341   -1.4007 H           1 GMY       0.0524
     64 H24        26.7771  -29.5774   -2.2322 H           1 GMY       0.0524
     65 H25        26.8102  -30.7752   -0.9135 H           1 GMY       0.0524
     66 H26        28.5307  -30.9646   -2.0126 H           1 GMY       0.2101
     67 H27        30.3280  -35.5252   -2.4221 H           1 GMY       0.0247
     68 H28        29.3881  -34.8704   -1.0662 H           1 GMY       0.0247
     69 H29        30.6558  -33.8972   -1.8365 H           1 GMY       0.0247
     70 H30        29.7886  -35.8034   -5.2170 H           1 GMY       0.0376
     71 H31        28.6917  -34.6336   -5.9889 H           1 GMY       0.0376
     72 H32        28.6297  -36.3405   -6.4207 H           1 GMY       0.0376
     73 H33        28.8612  -40.8084   -3.8125 H           1 GMY       0.1831
     74 H34        28.5729  -40.3204   -5.3920 H           1 GMY       0.1831
     75 H35        24.1157  -39.4098   -6.9208 H           1 GMY       0.0527
     76 H36        25.8701  -39.3306   -6.7563 H           1 GMY       0.0527
     77 H37        25.0328  -38.3321   -7.9724 H           1 GMY       0.0527
     78 H38        23.5005  -33.2974   -8.4261 H           1 GMY       0.0384
     79 H39        23.6407  -34.0365  -10.0136 H           1 GMY       0.0384
     80 H40        24.2254  -32.3832   -9.7434 H           1 GMY       0.0384
@<TRIPOS>BOND
     1     1     2   1
     2     1     6   2
     3     1     7   1
     4     2     3   1
     5     2    23   2
     6     3     4   2
     7     3    22   1
     8     4     5   1
     9     5     6   1
    10     5    24   2
    11     6    25   1
    12     7     8   1
    13     8     9   1
    14     8    27   1
    15     9    10   1
    16    10    11   1
    17    10    28   1
    18    11    12   1
    19    11    30   1
    20    12    13   1
    21    12    31   1
    22    13    14   2
    23    14    15   1
    24    14    32   1
    25    15    16   1
    26    15    33   1
    27    16    17   1
    28    16    37   1
    29    17    18   2
    30    18    19   1
    31    19    20   2
    32    20    21   1
    33    20    39   1
    34    21    22  am
    35    21    40   2
    36    25    26   1
    37    28    29   1
    38    33    34   1
    39    34    35   2
    40    34    36  am
    41    37    38   1
    42     4    41   1
    43     7    42   1
    44     7    43   1
    45     8    44   1
    46     9    45   1
    47     9    46   1
    48    10    47   1
    49    11    48   1
    50    12    49   1
    51    13    50   1
    52    15    51   1
    53    16    52   1
    54    17    53   1
    55    18    54   1
    56    19    55   1
    57    22    56   1
    58    26    57   1
    59    26    58   1
    60    26    59   1
    61    27    60   1
    62    27    61   1
    63    27    62   1
    64    29    63   1
    65    29    64   1
    66    29    65   1
    67    30    66   1
    68    31    67   1
    69    31    68   1
    70    31    69   1
    71    32    70   1
    72    32    71   1
    73    32    72   1
    74    36    73   1
    75    36    74   1
    76    38    75   1
    77    38    76   1
    78    38    77   1
    79    39    78   1
    80    39    79   1
    81    39    80   1
@<TRIPOS>SUBSTRUCTURE
     1  GMY      1

