@<TRIPOS>MOLECULE
2yge_ligand_058
    80    81
SMALL
GAST_HUCK
****
This file was generated by PARSER (from files_GN.cpp)

@<TRIPOS>ATOM
      1 C1         27.6825  -35.3113   -4.7031 C.2         1 GMY       0.0496
      2 C2         27.5682  -35.4302   -3.3243 C.2         1 GMY       0.1905
      3 C3         28.4550  -34.7877   -2.4794 C.2         1 GMY       0.1367
      4 C4         29.5617  -34.2276   -3.0194 C.2         1 GMY       0.0078
      5 C5         29.7103  -34.1270   -4.3738 C.2         1 GMY       0.1522
      6 C6         28.7542  -34.6474   -5.2203 C.2         1 GMY       0.1484
      7 C7         26.5594  -35.7620   -5.5423 C.3         1 GMY      -0.0163
      8 C8         25.3463  -34.7621   -5.4727 C.3         1 GMY      -0.0344
      9 C9         25.0987  -34.0916   -6.8574 C.3         1 GMY      -0.0200
     10 C10        24.2020  -32.8084   -6.8272 C.3         1 GMY       0.0859
     11 C11        24.9182  -31.5529   -7.4326 C.3         1 GMY       0.0868
     12 C12        26.0605  -30.9451   -6.5431 C.3         1 GMY      -0.0094
     13 C13        25.4963  -30.3445   -5.3324 C.2         1 GMY      -0.1006
     14 C14        26.0494  -30.2392   -4.1004 C.2         1 GMY      -0.0457
     15 C15        25.3092  -29.5051   -3.0419 C.3         1 GMY       0.1504
     16 C16        24.9314  -30.3520   -1.7781 C.3         1 GMY       0.1288
     17 C17        24.2263  -31.5757   -2.1547 C.2         1 GMY      -0.0424
     18 C18        24.5970  -32.8538   -1.9485 C.2         1 GMY      -0.0729
     19 C19        25.7727  -33.2741   -1.4192 C.2         1 GMY      -0.0656
     20 C20        25.9866  -34.4112   -0.7204 C.2         1 GMY       0.0245
     21 C21        27.2694  -34.7099   -0.3443 C.2         1 GMY       0.2316
     22 N22        28.3424  -34.7747   -1.1336 N.am        1 GMY      -0.2158
     23 O23        26.8595  -36.3145   -2.8615 O.2         1 GMY      -0.3575
     24 O24        30.6514  -33.4770   -4.8152 O.2         1 GMY      -0.3865
     25 O25        28.7974  -34.3156   -6.5254 O.3         1 GMY      -0.3151
     26 C26        29.6199  -35.1708   -7.3403 C.3         1 GMY       0.0602
     27 C27        24.0663  -35.4449   -4.9122 C.3         1 GMY      -0.0609
     28 O28        23.0054  -33.0941   -7.5958 O.3         1 GMY      -0.3771
     29 C29        21.7299  -32.8552   -6.9696 C.3         1 GMY       0.0369
     30 O30        25.3827  -31.8770   -8.7451 O.3         1 GMY      -0.3877
     31 C31        26.8710  -29.8584   -7.3064 C.3         1 GMY      -0.0567
     32 C32        27.3721  -30.7876   -3.8042 C.3         1 GMY      -0.0373
     33 O33        26.0204  -28.3222   -2.6328 O.3         1 GMY      -0.2436
     34 C34        26.6605  -27.4201   -3.4296 C.2         1 GMY       0.3194
     35 O35        26.7979  -27.5831   -4.7696 O.2         1 GMY      -0.3776
     36 N36        27.1055  -26.2867   -2.8638 N.am        1 GMY      -0.2762
     37 O37        23.9991  -29.7150   -0.8759 O.3         1 GMY      -0.3598
     38 C38        24.1418  -28.3304   -0.5259 C.3         1 GMY       0.0406
     39 C39        24.9291  -35.3223   -0.2624 C.3         1 GMY      -0.0273
     40 O40        27.5043  -34.7807    0.8524 O.2         1 GMY      -0.3753
     41 H1         30.2582  -33.8349   -2.4257 H           1 GMY       0.0327
     42 H2         26.2568  -36.7670   -5.2317 H           1 GMY       0.0392
     43 H3         26.8808  -35.9082   -6.5765 H           1 GMY       0.0392
     44 H4         25.5853  -33.9519   -4.7734 H           1 GMY       0.0317
     45 H5         24.6742  -34.8400   -7.5336 H           1 GMY       0.0295
     46 H6         26.0732  -33.8351   -7.2772 H           1 GMY       0.0295
     47 H7         23.9427  -32.5672   -5.7906 H           1 GMY       0.0623
     48 H8         24.1646  -30.7741   -7.5717 H           1 GMY       0.0637
     49 H9         26.7555  -31.7447   -6.2805 H           1 GMY       0.0398
     50 H10        24.6273  -29.8810   -5.4692 H           1 GMY       0.0247
     51 H11        24.3593  -29.1266   -3.4310 H           1 GMY       0.0853
     52 H12        25.8419  -30.5569   -1.2139 H           1 GMY       0.0852
     53 H13        23.3462  -31.4475   -2.6052 H           1 GMY       0.0741
     54 H14        23.9677  -33.5493   -2.2798 H           1 GMY       0.0436
     55 H15        26.5596  -32.7011   -1.6235 H           1 GMY       0.0539
     56 H16        29.1908  -34.7650   -0.6585 H           1 GMY       0.2392
     57 H17        29.5418  -34.8267   -8.3717 H           1 GMY       0.0581
     58 H18        29.2847  -36.2100   -7.3007 H           1 GMY       0.0581
     59 H19        30.6698  -35.1171   -7.0434 H           1 GMY       0.0581
     60 H20        24.2750  -35.9000   -3.9413 H           1 GMY       0.0234
     61 H21        23.7147  -36.2214   -5.5946 H           1 GMY       0.0234
     62 H22        23.2687  -34.7152   -4.7695 H           1 GMY       0.0234
     63 H23        20.9431  -33.0379   -7.7035 H           1 GMY       0.0524
     64 H24        21.6474  -31.8215   -6.6230 H           1 GMY       0.0524
     65 H25        21.5816  -33.5364   -6.1298 H           1 GMY       0.0524
     66 H26        24.5808  -32.1973   -9.2092 H           1 GMY       0.2101
     67 H27        27.6128  -29.3902   -6.6577 H           1 GMY       0.0247
     68 H28        26.2081  -29.0804   -7.6894 H           1 GMY       0.0247
     69 H29        27.4050  -30.3044   -8.1462 H           1 GMY       0.0247
     70 H30        28.1217  -30.3606   -4.4732 H           1 GMY       0.0376
     71 H31        27.3584  -31.8721   -3.9287 H           1 GMY       0.0376
     72 H32        27.6952  -30.5715   -2.7837 H           1 GMY       0.0376
     73 H33        27.5432  -25.6103   -3.4111 H           1 GMY       0.1831
     74 H34        26.9129  -26.1091   -1.9261 H           1 GMY       0.1831
     75 H35        23.5577  -28.1468    0.3787 H           1 GMY       0.0527
     76 H36        23.7460  -27.6930   -1.3174 H           1 GMY       0.0527
     77 H37        25.1868  -28.0715   -0.3350 H           1 GMY       0.0527
     78 H38        23.9217  -34.9961   -0.5201 H           1 GMY       0.0384
     79 H39        24.9560  -35.4162    0.8258 H           1 GMY       0.0384
     80 H40        25.0764  -36.3134   -0.6960 H           1 GMY       0.0384
@<TRIPOS>BOND
     1     1     2   1
     2     1     6   2
     3     1     7   1
     4     2     3   1
     5     2    23   2
     6     3     4   2
     7     3    22   1
     8     4     5   1
     9     5     6   1
    10     5    24   2
    11     6    25   1
    12     7     8   1
    13     8     9   1
    14     8    27   1
    15     9    10   1
    16    10    11   1
    17    10    28   1
    18    11    12   1
    19    11    30   1
    20    12    13   1
    21    12    31   1
    22    13    14   2
    23    14    15   1
    24    14    32   1
    25    15    16   1
    26    15    33   1
    27    16    17   1
    28    16    37   1
    29    17    18   2
    30    18    19   1
    31    19    20   2
    32    20    21   1
    33    20    39   1
    34    21    22  am
    35    21    40   2
    36    25    26   1
    37    28    29   1
    38    33    34   1
    39    34    35   2
    40    34    36  am
    41    37    38   1
    42     4    41   1
    43     7    42   1
    44     7    43   1
    45     8    44   1
    46     9    45   1
    47     9    46   1
    48    10    47   1
    49    11    48   1
    50    12    49   1
    51    13    50   1
    52    15    51   1
    53    16    52   1
    54    17    53   1
    55    18    54   1
    56    19    55   1
    57    22    56   1
    58    26    57   1
    59    26    58   1
    60    26    59   1
    61    27    60   1
    62    27    61   1
    63    27    62   1
    64    29    63   1
    65    29    64   1
    66    29    65   1
    67    30    66   1
    68    31    67   1
    69    31    68   1
    70    31    69   1
    71    32    70   1
    72    32    71   1
    73    32    72   1
    74    36    73   1
    75    36    74   1
    76    38    75   1
    77    38    76   1
    78    38    77   1
    79    39    78   1
    80    39    79   1
    81    39    80   1
@<TRIPOS>SUBSTRUCTURE
     1  GMY      1

