@<TRIPOS>MOLECULE
2yki_ligand_071
    52    58
SMALL
GAST_HUCK
****
This file was generated by PARSER (from files_GN.cpp)

@<TRIPOS>ATOM
      1 C1          4.5550   -0.6839   20.8986 C.ar        1 YKI      -0.0069
      2 N1          3.5612   -0.5409   19.9763 N.ar        1 YKI      -0.3145
      3 C2          2.6920    0.5084   19.9767 C.ar        1 YKI       0.0318
      4 N2          2.1669    2.6100   21.2342 N.pl3       1 YKI      -0.2421
      5 C3          4.7199    0.2766   21.9203 C.ar        1 YKI      -0.0358
      6 N3          3.7483    2.4226   22.7647 N.2         1 YKI      -0.2951
      7 C4          2.7183    3.1720   22.3204 C.2         1 YKI       0.1441
      8 N4          0.4049    6.2941   26.6644 N.am        1 YKI      -0.2584
      9 C5          3.8374    1.3693   21.9383 C.ar        1 YKI       0.0509
     10 N5          2.0494    8.5906   30.8330 N.ar        1 YKI      -0.2805
     11 C6          2.8363    1.4852   20.9750 C.ar        1 YKI       0.1092
     12 N6          3.3716    9.6425   29.0804 N.pl3       1 YKI      -0.2631
     13 C7          2.2666    4.3743   22.8763 C.ar        1 YKI       0.0361
     14 C8          1.2840    6.8747   23.8029 C.ar        1 YKI      -0.0512
     15 C9          2.1757    6.8239   22.7165 C.ar        1 YKI      -0.0623
     16 C10         2.6596    5.5849   22.2531 C.ar        1 YKI      -0.0499
     17 C11         0.8529    5.8864   27.8479 C.2         1 YKI       0.2116
     18 C12         1.2281    6.8120   28.8096 C.ar        1 YKI       0.0544
     19 O13         0.9629    4.6994   28.1347 O.2         1 YKI      -0.3825
     20 C14         0.7537    6.6883   30.1414 C.ar        1 YKI      -0.0315
     21 C15         1.1746    7.5933   31.1350 C.ar        1 YKI       0.0006
     22 C16        -0.0647    5.5382   25.5339 C.3         1 YKI       0.1112
     23 C17         0.8887    5.6695   24.4202 C.ar        1 YKI       0.0062
     24 C18         1.3668    4.4293   23.9718 C.ar        1 YKI       0.0013
     25 C19        -0.1518    4.0671   25.6160 C.ar        1 YKI       0.0020
     26 C20         0.7227    3.4348   24.7162 C.ar        1 YKI      -0.0129
     27 C21         0.7742    2.0238   24.6631 C.ar        1 YKI      -0.0610
     28 C22        -0.0686    1.2671   25.5051 C.ar        1 YKI      -0.0680
     29 C23        -0.9675    1.9091   26.3822 C.ar        1 YKI      -0.0680
     30 C24        -1.0152    3.3169   26.4355 C.ar        1 YKI      -0.0553
     31 C25         2.1035    7.8894   28.5340 C.ar        1 YKI       0.0172
     32 C26         2.5123    8.7343   29.5675 C.ar        1 YKI       0.1409
     33 C27         3.5219    9.4333   27.7619 C.2         1 YKI       0.0293
     34 C28         2.7509    8.3372   27.3900 C.2         1 YKI      -0.0523
     35 H1          5.1797   -1.4880   20.8449 H           1 YKI       0.0705
     36 H2          1.9618    0.5817   19.2697 H           1 YKI       0.0763
     37 H3          1.4074    2.9609   20.7493 H           1 YKI       0.2328
     38 H4          5.4586    0.1848   22.6218 H           1 YKI       0.0643
     39 H5          0.3743    7.2615   26.5445 H           1 YKI       0.1910
     40 H6          3.8070   10.3377   29.6023 H           1 YKI       0.2313
     41 H7          0.9245    7.7724   24.1329 H           1 YKI       0.0605
     42 H8          2.4617    7.6905   22.2539 H           1 YKI       0.0605
     43 H9          3.2938    5.5781   21.4476 H           1 YKI       0.0619
     44 H10         0.0830    5.9556   30.3914 H           1 YKI       0.0656
     45 H11         0.8212    7.5121   32.0894 H           1 YKI       0.0758
     46 H12        -1.0384    5.9337   25.2275 H           1 YKI       0.0919
     47 H13         1.3947    1.5400   24.0174 H           1 YKI       0.0603
     48 H14        -0.0416    0.2440   25.4627 H           1 YKI       0.0563
     49 H15        -1.5969    1.3501   26.9669 H           1 YKI       0.0597
     50 H16        -1.6644    3.7814   27.0715 H           1 YKI       0.0566
     51 H17         4.1121    9.9863   27.1397 H           1 YKI       0.0983
     52 H18         2.6890    7.9440   26.4530 H           1 YKI       0.0310
@<TRIPOS>BOND
     1     1     2  ar
     2     5     1  ar
     3     3     2  ar
     4    11     3  ar
     5     7     4   1
     6     4    11   1
     7     9     5  ar
     8     7     6   2
     9     6     9   1
    10    13     7   1
    11     8    17  am
    12    22     8   1
    13     9    11  ar
    14    21    10  ar
    15    10    32  ar
    16    32    12   1
    17    12    33   1
    18    16    13  ar
    19    13    24  ar
    20    14    15  ar
    21    23    14  ar
    22    15    16  ar
    23    17    18   1
    24    17    19   2
    25    18    20  ar
    26    18    31  ar
    27    20    21  ar
    28    22    23   1
    29    22    25   1
    30    23    24  ar
    31    24    26   1
    32    25    26  ar
    33    25    30  ar
    34    26    27  ar
    35    27    28  ar
    36    28    29  ar
    37    29    30  ar
    38    31    32  ar
    39    31    34   1
    40    33    34   2
    41     1    35   1
    42     3    36   1
    43     4    37   1
    44     5    38   1
    45     8    39   1
    46    12    40   1
    47    14    41   1
    48    15    42   1
    49    16    43   1
    50    20    44   1
    51    21    45   1
    52    22    46   1
    53    27    47   1
    54    28    48   1
    55    29    49   1
    56    30    50   1
    57    33    51   1
    58    34    52   1
@<TRIPOS>SUBSTRUCTURE
     1  YKI      1

