@<TRIPOS>MOLECULE
2yki_ligand_005
    52    58
SMALL
GAST_HUCK
****
This file was generated by PARSER (from files_GN.cpp)

@<TRIPOS>ATOM
      1 C1          6.7017    2.7772   25.9796 C.ar        1 YKI      -0.0069
      2 N1          6.7827    2.4321   24.6622 N.ar        1 YKI      -0.3145
      3 C2          6.8277    3.3478   23.6532 C.ar        1 YKI       0.0318
      4 N2          6.8130    5.8343   23.2619 N.pl3       1 YKI      -0.2421
      5 C3          6.6722    4.1371   26.3541 C.ar        1 YKI      -0.0358
      6 N3          6.7149    6.4307   25.3856 N.2         1 YKI      -0.2951
      7 C4          6.7366    6.8793   24.1117 C.2         1 YKI       0.1441
      8 N4          4.7783   12.2809   24.8933 N.am        1 YKI      -0.2584
      9 C5          6.7250    5.0930   25.3272 C.ar        1 YKI       0.0509
     10 N5          5.5363   16.4136   27.6425 N.ar        1 YKI      -0.2805
     11 C6          6.7901    4.7130   23.9853 C.ar        1 YKI       0.1092
     12 N6          7.5915   15.1355   27.8855 N.pl3       1 YKI      -0.2631
     13 C7          6.7323    8.2335   23.7398 C.ar        1 YKI       0.0361
     14 C8          6.8596   10.9775   22.9898 C.ar        1 YKI      -0.0512
     15 C9          7.9354   10.1138   22.7093 C.ar        1 YKI      -0.0623
     16 C10         7.8622    8.7505   23.0655 C.ar        1 YKI      -0.0499
     17 C11         4.5036   13.5699   24.7243 C.2         1 YKI       0.2116
     18 C12         4.8620   14.5102   25.6836 C.ar        1 YKI       0.0544
     19 O13         3.8748   13.9521   23.7456 O.2         1 YKI      -0.3825
     20 C14         3.9943   15.5910   25.9956 C.ar        1 YKI      -0.0315
     21 C15         4.3515   16.5268   26.9890 C.ar        1 YKI       0.0006
     22 C16         4.4961   11.2136   23.9735 C.3         1 YKI       0.1112
     23 C17         5.7222   10.4673   23.6447 C.ar        1 YKI       0.0062
     24 C18         5.6538    9.1131   24.0306 C.ar        1 YKI       0.0013
     25 C19         3.7082   10.1509   24.6117 C.ar        1 YKI       0.0020
     26 C20         4.3987    8.9290   24.6340 C.ar        1 YKI      -0.0129
     27 C21         3.7720    7.7926   25.1999 C.ar        1 YKI      -0.0610
     28 C22         2.4861    7.8990   25.7551 C.ar        1 YKI      -0.0680
     29 C23         1.8014    9.1270   25.7196 C.ar        1 YKI      -0.0680
     30 C24         2.4089   10.2619   25.1400 C.ar        1 YKI      -0.0553
     31 C25         6.0887   14.4447   26.3870 C.ar        1 YKI       0.0172
     32 C26         6.3945   15.4088   27.3547 C.ar        1 YKI       0.1409
     33 C27         8.0931   14.0345   27.2949 C.2         1 YKI       0.0293
     34 C28         7.1854   13.5890   26.3430 C.2         1 YKI      -0.0523
     35 H1          6.6624    2.0484   26.6921 H           1 YKI       0.0705
     36 H2          6.8909    3.0470   22.6796 H           1 YKI       0.0763
     37 H3          6.8691    5.9067   22.2958 H           1 YKI       0.2328
     38 H4          6.6163    4.4190   27.3365 H           1 YKI       0.0643
     39 H5          5.2189   12.0347   25.7239 H           1 YKI       0.1910
     40 H6          8.0191   15.6117   28.6093 H           1 YKI       0.2313
     41 H7          6.9019   11.9674   22.7255 H           1 YKI       0.0605
     42 H8          8.7701   10.4818   22.2486 H           1 YKI       0.0605
     43 H9          8.6588    8.1465   22.8518 H           1 YKI       0.0619
     44 H10         3.0900   15.6891   25.5276 H           1 YKI       0.0656
     45 H11         3.7255   17.2935   27.2237 H           1 YKI       0.0758
     46 H12         4.0009   11.5284   23.0491 H           1 YKI       0.0919
     47 H13         4.2232    6.8824   25.2181 H           1 YKI       0.0603
     48 H14         2.0507    7.0694   26.1707 H           1 YKI       0.0563
     49 H15         0.8628    9.1857   26.1144 H           1 YKI       0.0597
     50 H16         1.9118   11.1520   25.1157 H           1 YKI       0.0566
     51 H17         8.9885   13.6096   27.5256 H           1 YKI       0.0983
     52 H18         7.3087   12.7805   25.7311 H           1 YKI       0.0310
@<TRIPOS>BOND
     1     1     2  ar
     2     5     1  ar
     3     3     2  ar
     4    11     3  ar
     5     7     4   1
     6     4    11   1
     7     9     5  ar
     8     7     6   2
     9     6     9   1
    10    13     7   1
    11     8    17  am
    12    22     8   1
    13     9    11  ar
    14    21    10  ar
    15    10    32  ar
    16    32    12   1
    17    12    33   1
    18    16    13  ar
    19    13    24  ar
    20    14    15  ar
    21    23    14  ar
    22    15    16  ar
    23    17    18   1
    24    17    19   2
    25    18    20  ar
    26    18    31  ar
    27    20    21  ar
    28    22    23   1
    29    22    25   1
    30    23    24  ar
    31    24    26   1
    32    25    26  ar
    33    25    30  ar
    34    26    27  ar
    35    27    28  ar
    36    28    29  ar
    37    29    30  ar
    38    31    32  ar
    39    31    34   1
    40    33    34   2
    41     1    35   1
    42     3    36   1
    43     4    37   1
    44     5    38   1
    45     8    39   1
    46    12    40   1
    47    14    41   1
    48    15    42   1
    49    16    43   1
    50    20    44   1
    51    21    45   1
    52    22    46   1
    53    27    47   1
    54    28    48   1
    55    29    49   1
    56    30    50   1
    57    33    51   1
    58    34    52   1
@<TRIPOS>SUBSTRUCTURE
     1  YKI      1

