@<TRIPOS>MOLECULE
2yki_ligand_041
    52    58
SMALL
GAST_HUCK
****
This file was generated by PARSER (from files_GN.cpp)

@<TRIPOS>ATOM
      1 C1         19.7288    3.9430   26.9872 C.ar        1 YKI      -0.0069
      2 N1         18.7422    4.0489   26.0530 N.ar        1 YKI      -0.3145
      3 C2         17.7317    4.9534   26.1375 C.ar        1 YKI       0.0318
      4 N2         16.8727    6.7986   27.6260 N.pl3       1 YKI      -0.2421
      5 C3         19.7309    4.7937   28.1096 C.ar        1 YKI      -0.0358
      6 N3         18.4554    6.6825   29.1358 N.2         1 YKI      -0.2951
      7 C4         17.3118    7.3195   28.7952 C.2         1 YKI       0.1441
      8 N4         16.6285   10.6725   33.6644 N.am        1 YKI      -0.2584
      9 C5         18.6917    5.7394   28.2137 C.ar        1 YKI       0.0509
     10 N5         19.4209   14.3118   35.5720 N.ar        1 YKI      -0.2805
     11 C6         17.6994    5.8179   27.2469 C.ar        1 YKI       0.1092
     12 N6         17.6429   14.1201   37.2232 N.pl3       1 YKI      -0.2631
     13 C7         16.7509    8.4344   29.4804 C.ar        1 YKI       0.0361
     14 C8         15.6803   10.8087   30.6705 C.ar        1 YKI      -0.0512
     15 C9         15.8058   10.7076   29.2759 C.ar        1 YKI      -0.0623
     16 C10        16.3263    9.5367   28.6931 C.ar        1 YKI      -0.0499
     17 C11        17.9144   10.7305   33.9880 C.2         1 YKI       0.2116
     18 C12        18.4151   11.8967   34.5431 C.ar        1 YKI       0.0544
     19 O13        18.7002    9.8207   33.7148 O.2         1 YKI      -0.3825
     20 C14        19.5711   12.5113   33.9915 C.ar        1 YKI      -0.0315
     21 C15        20.0311   13.7410   34.5043 C.ar        1 YKI       0.0006
     22 C16        15.9355    9.6498   32.9347 C.3         1 YKI       0.1112
     23 C17        16.0857    9.7271   31.4675 C.ar        1 YKI       0.0062
     24 C18        16.5978    8.5448   30.8995 C.ar        1 YKI       0.0013
     25 C19        16.4074    8.2760   33.1647 C.ar        1 YKI       0.0020
     26 C20        16.7658    7.6425   31.9627 C.ar        1 YKI      -0.0129
     27 C21        17.1192    6.2785   31.9908 C.ar        1 YKI      -0.0610
     28 C22        17.1878    5.6004   33.2209 C.ar        1 YKI      -0.0680
     29 C23        16.8942    6.2659   34.4252 C.ar        1 YKI      -0.0680
     30 C24        16.4875    7.6129   34.4022 C.ar        1 YKI      -0.0553
     31 C25        17.7925   12.5488   35.6378 C.ar        1 YKI       0.0172
     32 C26        18.3388   13.7291   36.1462 C.ar        1 YKI       0.1409
     33 C27        16.6428   13.2447   37.4307 C.2         1 YKI       0.0293
     34 C28        16.6933   12.2664   36.4446 C.2         1 YKI      -0.0523
     35 H1         20.4590    3.2335   26.8752 H           1 YKI       0.0705
     36 H2         17.0214    5.0001   25.4019 H           1 YKI       0.0763
     37 H3         16.0860    7.0669   27.1275 H           1 YKI       0.2328
     38 H4         20.4607    4.7317   28.8218 H           1 YKI       0.0643
     39 H5         16.0851   11.4378   33.9361 H           1 YKI       0.1910
     40 H6         17.8444   14.8881   37.7850 H           1 YKI       0.2313
     41 H7         15.2812   11.6492   31.0954 H           1 YKI       0.0605
     42 H8         15.5006   11.4865   28.6823 H           1 YKI       0.0605
     43 H9         16.4088    9.5054   27.6705 H           1 YKI       0.0619
     44 H10        20.0457   12.1050   33.1811 H           1 YKI       0.0656
     45 H11        20.8271   14.2176   34.0784 H           1 YKI       0.0758
     46 H12        14.8725    9.7062   33.1794 H           1 YKI       0.0919
     47 H13        17.2586    5.7536   31.1308 H           1 YKI       0.0603
     48 H14        17.4432    4.6114   33.2372 H           1 YKI       0.0563
     49 H15        16.9396    5.7644   35.3157 H           1 YKI       0.0597
     50 H16        16.2328    8.0911   35.2692 H           1 YKI       0.0566
     51 H17        15.9798   13.2833   38.2043 H           1 YKI       0.0983
     52 H18        16.0622   11.4732   36.3587 H           1 YKI       0.0310
@<TRIPOS>BOND
     1     1     2  ar
     2     5     1  ar
     3     3     2  ar
     4    11     3  ar
     5     7     4   1
     6     4    11   1
     7     9     5  ar
     8     7     6   2
     9     6     9   1
    10    13     7   1
    11     8    17  am
    12    22     8   1
    13     9    11  ar
    14    21    10  ar
    15    10    32  ar
    16    32    12   1
    17    12    33   1
    18    16    13  ar
    19    13    24  ar
    20    14    15  ar
    21    23    14  ar
    22    15    16  ar
    23    17    18   1
    24    17    19   2
    25    18    20  ar
    26    18    31  ar
    27    20    21  ar
    28    22    23   1
    29    22    25   1
    30    23    24  ar
    31    24    26   1
    32    25    26  ar
    33    25    30  ar
    34    26    27  ar
    35    27    28  ar
    36    28    29  ar
    37    29    30  ar
    38    31    32  ar
    39    31    34   1
    40    33    34   2
    41     1    35   1
    42     3    36   1
    43     4    37   1
    44     5    38   1
    45     8    39   1
    46    12    40   1
    47    14    41   1
    48    15    42   1
    49    16    43   1
    50    20    44   1
    51    21    45   1
    52    22    46   1
    53    27    47   1
    54    28    48   1
    55    29    49   1
    56    30    50   1
    57    33    51   1
    58    34    52   1
@<TRIPOS>SUBSTRUCTURE
     1  YKI      1

