@<TRIPOS>MOLECULE
2yki_ligand_008
    52    58
SMALL
GAST_HUCK
****
This file was generated by PARSER (from files_GN.cpp)

@<TRIPOS>ATOM
      1 C1          7.2858    2.3269   36.3073 C.ar        1 YKI      -0.0069
      2 N1          7.9559    3.4976   36.0948 N.ar        1 YKI      -0.3145
      3 C2          7.3730    4.5977   35.5426 C.ar        1 YKI       0.0318
      4 N2          5.1762    5.3896   34.6086 N.pl3       1 YKI      -0.2421
      5 C3          5.9292    2.2125   35.9483 C.ar        1 YKI      -0.0358
      6 N3          4.0717    3.5053   34.8902 N.2         1 YKI      -0.2951
      7 C4          4.0022    4.7612   34.3941 C.2         1 YKI       0.1441
      8 N4          1.2753    7.2805   29.8487 N.am        1 YKI      -0.2584
      9 C5          5.3151    3.3330   35.3627 C.ar        1 YKI       0.0509
     10 N5         -0.7707    5.1905   25.6946 N.ar        1 YKI      -0.2805
     11 C6          6.0195    4.5180   35.1720 C.ar        1 YKI       0.1092
     12 N6         -0.8767    7.5705   25.2401 N.pl3       1 YKI      -0.2631
     13 C7          2.8536    5.3218   33.7881 C.ar        1 YKI       0.0361
     14 C8          0.4704    6.5234   32.7805 C.ar        1 YKI      -0.0512
     15 C9          0.4106    5.6215   33.8544 C.ar        1 YKI      -0.0623
     16 C10         1.5854    5.0294   34.3516 C.ar        1 YKI      -0.0499
     17 C11         1.5619    6.2454   29.0510 C.2         1 YKI       0.2116
     18 C12         0.7942    5.9215   27.9311 C.ar        1 YKI       0.0544
     19 O13         2.5139    5.5200   29.3202 O.2         1 YKI      -0.3825
     20 C14         0.5186    4.5604   27.6162 C.ar        1 YKI      -0.0315
     21 C15        -0.2789    4.2197   26.5036 C.ar        1 YKI       0.0006
     22 C16         1.9568    7.6973   31.0492 C.3         1 YKI       0.1112
     23 C17         1.7195    6.7992   32.1934 C.ar        1 YKI       0.0062
     24 C18         2.9004    6.1966   32.6641 C.ar        1 YKI       0.0013
     25 C19         3.4223    7.6187   30.9581 C.ar        1 YKI       0.0020
     26 C20         3.9414    6.6474   31.8327 C.ar        1 YKI      -0.0129
     27 C21         5.2854    6.2412   31.6808 C.ar        1 YKI      -0.0610
     28 C22         6.1134    6.8975   30.7486 C.ar        1 YKI      -0.0680
     29 C23         5.5968    7.9294   29.9421 C.ar        1 YKI      -0.0680
     30 C24         4.2394    8.2826   30.0255 C.ar        1 YKI      -0.0553
     31 C25         0.2633    6.8934   27.0420 C.ar        1 YKI       0.0172
     32 C26        -0.5086    6.4929   25.9456 C.ar        1 YKI       0.1409
     33 C27        -0.3647    8.6667   25.8204 C.2         1 YKI       0.0293
     34 C28         0.3571    8.2814   26.9453 C.2         1 YKI      -0.0523
     35 H1          7.7775    1.5343   36.7266 H           1 YKI       0.0705
     36 H2          7.9107    5.4517   35.3932 H           1 YKI       0.0763
     37 H3          5.3877    6.3001   34.3396 H           1 YKI       0.2328
     38 H4          5.4123    1.3431   36.0922 H           1 YKI       0.0643
     39 H5          0.4928    7.8022   29.6126 H           1 YKI       0.1910
     40 H6         -1.4117    7.5550   24.4333 H           1 YKI       0.2313
     41 H7         -0.3810    6.9661   32.4266 H           1 YKI       0.0605
     42 H8         -0.4899    5.4087   34.2899 H           1 YKI       0.0605
     43 H9          1.5068    4.4087   35.1615 H           1 YKI       0.0619
     44 H10         0.8767    3.8014   28.2037 H           1 YKI       0.0656
     45 H11        -0.4876    3.2421   26.3013 H           1 YKI       0.0758
     46 H12         1.6511    8.7147   31.3104 H           1 YKI       0.0919
     47 H13         5.6652    5.4554   32.1980 H           1 YKI       0.0603
     48 H14         7.0896    6.6107   30.6487 H           1 YKI       0.0563
     49 H15         6.2053    8.3878   29.2656 H           1 YKI       0.0597
     50 H16         3.8447    8.9840   29.3950 H           1 YKI       0.0566
     51 H17        -0.4738    9.6228   25.4789 H           1 YKI       0.0983
     52 H18         0.8755    8.9150   27.5588 H           1 YKI       0.0310
@<TRIPOS>BOND
     1     1     2  ar
     2     5     1  ar
     3     3     2  ar
     4    11     3  ar
     5     7     4   1
     6     4    11   1
     7     9     5  ar
     8     7     6   2
     9     6     9   1
    10    13     7   1
    11     8    17  am
    12    22     8   1
    13     9    11  ar
    14    21    10  ar
    15    10    32  ar
    16    32    12   1
    17    12    33   1
    18    16    13  ar
    19    13    24  ar
    20    14    15  ar
    21    23    14  ar
    22    15    16  ar
    23    17    18   1
    24    17    19   2
    25    18    20  ar
    26    18    31  ar
    27    20    21  ar
    28    22    23   1
    29    22    25   1
    30    23    24  ar
    31    24    26   1
    32    25    26  ar
    33    25    30  ar
    34    26    27  ar
    35    27    28  ar
    36    28    29  ar
    37    29    30  ar
    38    31    32  ar
    39    31    34   1
    40    33    34   2
    41     1    35   1
    42     3    36   1
    43     4    37   1
    44     5    38   1
    45     8    39   1
    46    12    40   1
    47    14    41   1
    48    15    42   1
    49    16    43   1
    50    20    44   1
    51    21    45   1
    52    22    46   1
    53    27    47   1
    54    28    48   1
    55    29    49   1
    56    30    50   1
    57    33    51   1
    58    34    52   1
@<TRIPOS>SUBSTRUCTURE
     1  YKI      1

