@<TRIPOS>MOLECULE
2yki_ligand_090
    52    58
SMALL
GAST_HUCK
****
This file was generated by PARSER (from files_GN.cpp)

@<TRIPOS>ATOM
      1 C1          5.4368    0.3780   29.1655 C.ar        1 YKI      -0.0069
      2 N1          5.7055    1.5429   29.8258 N.ar        1 YKI      -0.3145
      3 C2          5.5418    2.7716   29.2635 C.ar        1 YKI       0.0318
      4 N2          4.7996    3.8610   27.1272 N.pl3       1 YKI      -0.2421
      5 C3          4.9561    0.4066   27.8411 C.ar        1 YKI      -0.0358
      6 N3          4.3390    2.0002   26.0252 N.2         1 YKI      -0.2951
      7 C4          4.3448    3.3486   25.9682 C.2         1 YKI       0.1441
      8 N4          1.2198    7.6926   23.5007 N.am        1 YKI      -0.2584
      9 C5          4.7777    1.6709   27.2452 C.ar        1 YKI       0.0509
     10 N5          1.7299   12.6713   22.9987 N.ar        1 YKI      -0.2805
     11 C6          5.0685    2.8389   27.9430 C.ar        1 YKI       0.1092
     12 N6         -0.6787   12.3094   22.9860 N.pl3       1 YKI      -0.2631
     13 C7          3.9524    4.0861   24.8425 C.ar        1 YKI       0.0361
     14 C8          3.2188    5.4641   22.4695 C.ar        1 YKI      -0.0512
     15 C9          4.3954    4.6968   22.5052 C.ar        1 YKI      -0.0623
     16 C10         4.7562    4.0107   23.6797 C.ar        1 YKI      -0.0499
     17 C11         1.9966    8.6051   24.0840 C.2         1 YKI       0.2116
     18 C12         1.8972    9.9504   23.7310 C.ar        1 YKI       0.0544
     19 O13         2.8405    8.2624   24.9033 O.2         1 YKI      -0.3825
     20 C14         3.0607   10.7569   23.5912 C.ar        1 YKI      -0.0315
     21 C15         2.9489   12.1162   23.2234 C.ar        1 YKI       0.0006
     22 C16         1.1463    6.2814   23.7532 C.3         1 YKI       0.1112
     23 C17         2.4159    5.5437   23.6214 C.ar        1 YKI       0.0062
     24 C18         2.7676    4.8671   24.8012 C.ar        1 YKI       0.0013
     25 C19         0.7816    5.9309   25.1325 C.ar        1 YKI       0.0020
     26 C20         1.7423    5.1037   25.7328 C.ar        1 YKI      -0.0129
     27 C21         1.5383    4.6417   27.0535 C.ar        1 YKI      -0.0610
     28 C22         0.3827    5.0377   27.7539 C.ar        1 YKI      -0.0680
     29 C23        -0.5811    5.8643   27.1428 C.ar        1 YKI      -0.0680
     30 C24        -0.3879    6.3065   25.8194 C.ar        1 YKI      -0.0553
     31 C25         0.6503   10.5864   23.5057 C.ar        1 YKI       0.0172
     32 C26         0.6010   11.9351   23.1326 C.ar        1 YKI       0.1409
     33 C27        -1.4753   11.2628   23.2723 C.2         1 YKI       0.0293
     34 C28        -0.6768   10.1765   23.6128 C.2         1 YKI      -0.0523
     35 H1          5.5749   -0.5183   29.6419 H           1 YKI       0.0705
     36 H2          5.7585    3.6159   29.7888 H           1 YKI       0.0763
     37 H3          4.9158    4.8042   27.3317 H           1 YKI       0.2328
     38 H4          4.7526   -0.4513   27.3271 H           1 YKI       0.0643
     39 H5          0.6137    8.0204   22.8203 H           1 YKI       0.1910
     40 H6         -0.9835   13.1928   22.7344 H           1 YKI       0.2313
     41 H7          2.9493    5.9596   21.6181 H           1 YKI       0.0605
     42 H8          4.9802    4.6236   21.6710 H           1 YKI       0.0605
     43 H9          5.6198    3.4597   23.6801 H           1 YKI       0.0619
     44 H10         3.9941   10.3657   23.7407 H           1 YKI       0.0656
     45 H11         3.7850   12.6936   23.1319 H           1 YKI       0.0758
     46 H12         0.4082    5.8486   23.0736 H           1 YKI       0.0919
     47 H13         2.2043    4.0145   27.5073 H           1 YKI       0.0603
     48 H14         0.2403    4.7148   28.7120 H           1 YKI       0.0563
     49 H15        -1.4208    6.1358   27.6580 H           1 YKI       0.0597
     50 H16        -1.0945    6.8857   25.3639 H           1 YKI       0.0566
     51 H17        -2.4963   11.2712   23.2544 H           1 YKI       0.0983
     52 H18        -1.0158    9.2622   23.9030 H           1 YKI       0.0310
@<TRIPOS>BOND
     1     1     2  ar
     2     5     1  ar
     3     3     2  ar
     4    11     3  ar
     5     7     4   1
     6     4    11   1
     7     9     5  ar
     8     7     6   2
     9     6     9   1
    10    13     7   1
    11     8    17  am
    12    22     8   1
    13     9    11  ar
    14    21    10  ar
    15    10    32  ar
    16    32    12   1
    17    12    33   1
    18    16    13  ar
    19    13    24  ar
    20    14    15  ar
    21    23    14  ar
    22    15    16  ar
    23    17    18   1
    24    17    19   2
    25    18    20  ar
    26    18    31  ar
    27    20    21  ar
    28    22    23   1
    29    22    25   1
    30    23    24  ar
    31    24    26   1
    32    25    26  ar
    33    25    30  ar
    34    26    27  ar
    35    27    28  ar
    36    28    29  ar
    37    29    30  ar
    38    31    32  ar
    39    31    34   1
    40    33    34   2
    41     1    35   1
    42     3    36   1
    43     4    37   1
    44     5    38   1
    45     8    39   1
    46    12    40   1
    47    14    41   1
    48    15    42   1
    49    16    43   1
    50    20    44   1
    51    21    45   1
    52    22    46   1
    53    27    47   1
    54    28    48   1
    55    29    49   1
    56    30    50   1
    57    33    51   1
    58    34    52   1
@<TRIPOS>SUBSTRUCTURE
     1  YKI      1

