@<TRIPOS>MOLECULE
2yki_ligand_018
    52    58
SMALL
GAST_HUCK
****
This file was generated by PARSER (from files_GN.cpp)

@<TRIPOS>ATOM
      1 C1          0.7316    9.0918   26.2449 C.ar        1 YKI      -0.0069
      2 N1          0.5705    8.8341   24.9160 N.ar        1 YKI      -0.3145
      3 C2          1.5836    8.9372   24.0133 C.ar        1 YKI       0.0318
      4 N2          4.0156    9.5329   23.8556 N.pl3       1 YKI      -0.2421
      5 C3          1.9890    9.4960   26.7425 C.ar        1 YKI      -0.0358
      6 N3          4.3255    9.9950   25.9914 N.2         1 YKI      -0.2951
      7 C4          4.9122    9.9441   24.7761 C.2         1 YKI       0.1441
      8 N4         10.0111   12.9710   25.3509 N.am        1 YKI      -0.2584
      9 C5          3.0445    9.6249   25.8237 C.ar        1 YKI       0.0509
     10 N5         14.4946   13.7905   27.5384 N.ar        1 YKI      -0.2805
     11 C6          2.8484    9.3397   24.4745 C.ar        1 YKI       0.1092
     12 N6         12.9186   14.8142   29.0779 N.pl3       1 YKI      -0.2631
     13 C7          6.2773   10.1659   24.4977 C.ar        1 YKI       0.0361
     14 C8          9.0019   10.4806   23.7270 C.ar        1 YKI      -0.0512
     15 C9          8.3400    9.2654   23.4919 C.ar        1 YKI      -0.0623
     16 C10         6.9906    9.1168   23.8655 C.ar        1 YKI      -0.0499
     17 C11        11.2027   13.3955   24.9406 C.2         1 YKI       0.2116
     18 C12        12.2762   13.5108   25.8167 C.ar        1 YKI       0.0544
     19 O13        11.3942   13.6608   23.7564 O.2         1 YKI      -0.3825
     20 C14        13.5813   13.1134   25.4216 C.ar        1 YKI      -0.0315
     21 C15        14.6706   13.2437   26.3086 C.ar        1 YKI       0.0006
     22 C16         8.8221   12.8876   24.5485 C.3         1 YKI       0.1112
     23 C17         8.3073   11.5235   24.3619 C.ar        1 YKI       0.0062
     24 C18         6.9656   11.3847   24.7644 C.ar        1 YKI       0.0013
     25 C19         7.6634   13.5062   25.1996 C.ar        1 YKI       0.0020
     26 C20         6.5753   12.6240   25.2961 C.ar        1 YKI      -0.0129
     27 C21         5.3507   13.0935   25.8250 C.ar        1 YKI      -0.0610
     28 C22         5.2475   14.4248   26.2736 C.ar        1 YKI      -0.0680
     29 C23         6.3499   15.2986   26.1748 C.ar        1 YKI      -0.0680
     30 C24         7.5617   14.8432   25.6231 C.ar        1 YKI      -0.0553
     31 C25        12.1476   14.0851   27.1085 C.ar        1 YKI       0.0172
     32 C26        13.2707   14.2113   27.9330 C.ar        1 YKI       0.1409
     33 C27        11.6109   15.1115   29.0263 C.2         1 YKI       0.0293
     34 C28        11.0965   14.6666   27.8103 C.2         1 YKI      -0.0523
     35 H1         -0.0675    8.9944   26.8745 H           1 YKI       0.0705
     36 H2          1.4198    8.7452   23.0230 H           1 YKI       0.0763
     37 H3          4.1872    9.4053   22.9069 H           1 YKI       0.2328
     38 H4          2.1283    9.6821   27.7370 H           1 YKI       0.0643
     39 H5          9.9298   12.7012   26.2800 H           1 YKI       0.1910
     40 H6         13.5184   15.0244   29.8109 H           1 YKI       0.2313
     41 H7          9.9704   10.6085   23.4248 H           1 YKI       0.0605
     42 H8          8.8301    8.5018   23.0199 H           1 YKI       0.0605
     43 H9          6.5322    8.2216   23.6622 H           1 YKI       0.0619
     44 H10        13.7561   12.7242   24.4913 H           1 YKI       0.0656
     45 H11        15.6045   12.9439   26.0244 H           1 YKI       0.0758
     46 H12         8.9406   13.3377   23.5631 H           1 YKI       0.0919
     47 H13         4.5308   12.4933   25.8714 H           1 YKI       0.0603
     48 H14         4.3643   14.7658   26.6621 H           1 YKI       0.0563
     49 H15         6.2699   16.2679   26.4899 H           1 YKI       0.0597
     50 H16         8.3543   15.4822   25.5252 H           1 YKI       0.0566
     51 H17        11.0915   15.6063   29.7522 H           1 YKI       0.0983
     52 H18        10.1354   14.7878   27.4895 H           1 YKI       0.0310
@<TRIPOS>BOND
     1     1     2  ar
     2     5     1  ar
     3     3     2  ar
     4    11     3  ar
     5     7     4   1
     6     4    11   1
     7     9     5  ar
     8     7     6   2
     9     6     9   1
    10    13     7   1
    11     8    17  am
    12    22     8   1
    13     9    11  ar
    14    21    10  ar
    15    10    32  ar
    16    32    12   1
    17    12    33   1
    18    16    13  ar
    19    13    24  ar
    20    14    15  ar
    21    23    14  ar
    22    15    16  ar
    23    17    18   1
    24    17    19   2
    25    18    20  ar
    26    18    31  ar
    27    20    21  ar
    28    22    23   1
    29    22    25   1
    30    23    24  ar
    31    24    26   1
    32    25    26  ar
    33    25    30  ar
    34    26    27  ar
    35    27    28  ar
    36    28    29  ar
    37    29    30  ar
    38    31    32  ar
    39    31    34   1
    40    33    34   2
    41     1    35   1
    42     3    36   1
    43     4    37   1
    44     5    38   1
    45     8    39   1
    46    12    40   1
    47    14    41   1
    48    15    42   1
    49    16    43   1
    50    20    44   1
    51    21    45   1
    52    22    46   1
    53    27    47   1
    54    28    48   1
    55    29    49   1
    56    30    50   1
    57    33    51   1
    58    34    52   1
@<TRIPOS>SUBSTRUCTURE
     1  YKI      1

