@<TRIPOS>MOLECULE
2yki_ligand_011
    52    58
SMALL
GAST_HUCK
****
This file was generated by PARSER (from files_GN.cpp)

@<TRIPOS>ATOM
      1 C1         -1.1818    4.8618   26.9665 C.ar        1 YKI      -0.0069
      2 N1         -0.9654    5.6470   28.0603 N.ar        1 YKI      -0.3145
      3 C2          0.0955    6.4954   28.1693 C.ar        1 YKI       0.0318
      4 N2          2.1200    7.2712   26.8929 N.pl3       1 YKI      -0.2421
      5 C3         -0.2882    4.9028   25.8769 C.ar        1 YKI      -0.0358
      6 N3          1.8071    6.0149   25.1063 N.2         1 YKI      -0.2951
      7 C4          2.5949    6.9530   25.6758 C.2         1 YKI       0.1441
      8 N4          6.1869   11.4175   24.5059 N.am        1 YKI      -0.2584
      9 C5          0.8105    5.7710   25.9722 C.ar        1 YKI       0.0509
     10 N5          9.9740   13.8786   26.4871 N.ar        1 YKI      -0.2805
     11 C6          1.0074    6.5614   27.1008 C.ar        1 YKI       0.1092
     12 N6          8.0769   15.0045   27.5312 N.pl3       1 YKI      -0.2631
     13 C7          3.7635    7.4601   25.0762 C.ar        1 YKI       0.0361
     14 C8          6.1700    8.3331   23.8297 C.ar        1 YKI      -0.0512
     15 C9          5.9761    6.9718   24.1189 C.ar        1 YKI      -0.0623
     16 C10         4.7843    6.5393   24.7263 C.ar        1 YKI      -0.0499
     17 C11         7.1069   12.1829   23.9363 C.2         1 YKI       0.2116
     18 C12         8.0524   12.7898   24.7444 C.ar        1 YKI       0.0544
     19 O13         7.2118   12.2848   22.7291 O.2         1 YKI      -0.3825
     20 C14         9.4349   12.4918   24.5916 C.ar        1 YKI      -0.0315
     21 C15        10.3716   13.0448   25.4888 C.ar        1 YKI       0.0006
     22 C16         5.1512   10.6894   23.8294 C.3         1 YKI       0.1112
     23 C17         5.1531    9.2528   24.1541 C.ar        1 YKI       0.0062
     24 C18         3.9583    8.8321   24.7658 C.ar        1 YKI       0.0013
     25 C19         3.8297   11.0650   24.3420 C.ar        1 YKI       0.0020
     26 C20         3.1330    9.9659   24.8690 C.ar        1 YKI      -0.0129
     27 C21         1.8098   10.1398   25.3220 C.ar        1 YKI      -0.0610
     28 C22         1.2159   11.4186   25.2802 C.ar        1 YKI      -0.0680
     29 C23         1.9338   12.5176   24.7702 C.ar        1 YKI      -0.0680
     30 C24         3.2441   12.3466   24.2895 C.ar        1 YKI      -0.0553
     31 C25         7.6895   13.6789   25.7792 C.ar        1 YKI       0.0172
     32 C26         8.6644   14.2026   26.6316 C.ar        1 YKI       0.1409
     33 C27         6.7542   15.0521   27.2835 C.2         1 YKI       0.0293
     34 C28         6.4764   14.2290   26.1943 C.2         1 YKI      -0.0523
     35 H1         -1.9941    4.2468   26.9424 H           1 YKI       0.0705
     36 H2          0.2213    7.0658   29.0064 H           1 YKI       0.0763
     37 H3          2.5082    7.9129   27.5101 H           1 YKI       0.2328
     38 H4         -0.4327    4.3240   25.0456 H           1 YKI       0.0643
     39 H5          6.2132   11.3304   25.4739 H           1 YKI       0.1910
     40 H6          8.5244   15.4494   28.2669 H           1 YKI       0.2313
     41 H7          7.0280    8.6442   23.3704 H           1 YKI       0.0605
     42 H8          6.6987    6.2917   23.8724 H           1 YKI       0.0605
     43 H9          4.6675    5.5375   24.9186 H           1 YKI       0.0619
     44 H10         9.7566   11.8532   23.8619 H           1 YKI       0.0656
     45 H11        11.3650   12.8129   25.3974 H           1 YKI       0.0758
     46 H12         5.1702   10.8189   22.7411 H           1 YKI       0.0919
     47 H13         1.2537    9.3579   25.6560 H           1 YKI       0.0603
     48 H14         0.2544   11.5434   25.6043 H           1 YKI       0.0563
     49 H15         1.4942   13.4407   24.7363 H           1 YKI       0.0597
     50 H16         3.7581   13.1371   23.8976 H           1 YKI       0.0566
     51 H17         6.0736   15.5930   27.8096 H           1 YKI       0.0983
     52 H18         5.5563   14.0781   25.7785 H           1 YKI       0.0310
@<TRIPOS>BOND
     1     1     2  ar
     2     5     1  ar
     3     3     2  ar
     4    11     3  ar
     5     7     4   1
     6     4    11   1
     7     9     5  ar
     8     7     6   2
     9     6     9   1
    10    13     7   1
    11     8    17  am
    12    22     8   1
    13     9    11  ar
    14    21    10  ar
    15    10    32  ar
    16    32    12   1
    17    12    33   1
    18    16    13  ar
    19    13    24  ar
    20    14    15  ar
    21    23    14  ar
    22    15    16  ar
    23    17    18   1
    24    17    19   2
    25    18    20  ar
    26    18    31  ar
    27    20    21  ar
    28    22    23   1
    29    22    25   1
    30    23    24  ar
    31    24    26   1
    32    25    26  ar
    33    25    30  ar
    34    26    27  ar
    35    27    28  ar
    36    28    29  ar
    37    29    30  ar
    38    31    32  ar
    39    31    34   1
    40    33    34   2
    41     1    35   1
    42     3    36   1
    43     4    37   1
    44     5    38   1
    45     8    39   1
    46    12    40   1
    47    14    41   1
    48    15    42   1
    49    16    43   1
    50    20    44   1
    51    21    45   1
    52    22    46   1
    53    27    47   1
    54    28    48   1
    55    29    49   1
    56    30    50   1
    57    33    51   1
    58    34    52   1
@<TRIPOS>SUBSTRUCTURE
     1  YKI      1

