@<TRIPOS>MOLECULE
2yki_ligand_077
    52    58
SMALL
GAST_HUCK
****
This file was generated by PARSER (from files_GN.cpp)

@<TRIPOS>ATOM
      1 C1          4.7077   -2.1131   24.7295 C.ar        1 YKI      -0.0069
      2 N1          3.3485   -2.1725   24.6223 N.ar        1 YKI      -0.3145
      3 C2          2.5322   -1.1298   24.9368 C.ar        1 YKI       0.0318
      4 N2          2.6078    1.2372   25.7655 N.pl3       1 YKI      -0.2421
      5 C3          5.3307   -0.9324   25.1843 C.ar        1 YKI      -0.0358
      6 N3          4.8029    1.3844   25.9610 N.2         1 YKI      -0.2951
      7 C4          3.6358    2.0443   26.0960 C.2         1 YKI       0.1441
      8 N4          1.6376    7.4991   25.4852 N.am        1 YKI      -0.2584
      9 C5          4.5047    0.1549   25.5151 C.ar        1 YKI       0.0509
     10 N5         -2.0719   10.5119   26.8879 N.ar        1 YKI      -0.2805
     11 C6          3.1198    0.0622   25.3928 C.ar        1 YKI       0.1092
     12 N6         -2.3402   10.9144   24.5006 N.pl3       1 YKI      -0.2631
     13 C7          3.5236    3.3693   26.5493 C.ar        1 YKI       0.0361
     14 C8          3.4007    6.0198   27.5719 C.ar        1 YKI      -0.0512
     15 C9          3.7173    4.9453   28.4249 C.ar        1 YKI      -0.0623
     16 C10         3.7974    3.6370   27.9135 C.ar        1 YKI      -0.0499
     17 C11         1.5788    8.7784   25.8253 C.2         1 YKI       0.2116
     18 C12         0.3693    9.3289   26.1674 C.ar        1 YKI       0.0544
     19 O13         2.5770    9.4768   25.9599 O.2         1 YKI      -0.3825
     20 C14        -0.0163    9.4327   27.5266 C.ar        1 YKI      -0.0315
     21 C15        -1.2513   10.0266   27.8593 C.ar        1 YKI       0.0006
     22 C16         2.8314    6.7701   25.1793 C.3         1 YKI       0.1112
     23 C17         3.1330    5.7623   26.2130 C.ar        1 YKI       0.0062
     24 C18         3.1730    4.4545   25.6992 C.ar        1 YKI       0.0013
     25 C19         2.6481    5.8951   24.0108 C.ar        1 YKI       0.0020
     26 C20         2.8610    4.5416   24.3289 C.ar        1 YKI      -0.0129
     27 C21         2.7387    3.5653   23.3199 C.ar        1 YKI      -0.0610
     28 C22         2.3803    3.9508   22.0115 C.ar        1 YKI      -0.0680
     29 C23         2.1699    5.3076   21.7021 C.ar        1 YKI      -0.0680
     30 C24         2.3166    6.2913   22.6997 C.ar        1 YKI      -0.0553
     31 C25        -0.5030    9.8602   25.1914 C.ar        1 YKI       0.0172
     32 C26        -1.7057   10.4491   25.5873 C.ar        1 YKI       0.1409
     33 C27        -1.5978   10.6545   23.4103 C.2         1 YKI       0.0293
     34 C28        -0.4413    9.9873   23.8063 C.2         1 YKI      -0.0523
     35 H1          5.2691   -2.9287   24.4784 H           1 YKI       0.0705
     36 H2          1.5198   -1.2141   24.8402 H           1 YKI       0.0763
     37 H3          1.6670    1.4701   25.7853 H           1 YKI       0.2328
     38 H4          6.3473   -0.8677   25.2663 H           1 YKI       0.0643
     39 H5          0.8061    7.0027   25.4746 H           1 YKI       0.1910
     40 H6         -3.1887   11.3884   24.5166 H           1 YKI       0.2313
     41 H7          3.3668    6.9739   27.9375 H           1 YKI       0.0605
     42 H8          3.8902    5.1161   29.4179 H           1 YKI       0.0605
     43 H9          4.0396    2.8767   28.5531 H           1 YKI       0.0619
     44 H10         0.5900    9.0790   28.2722 H           1 YKI       0.0656
     45 H11        -1.5356   10.0958   28.8345 H           1 YKI       0.0758
     46 H12         3.7077    7.4030   25.0234 H           1 YKI       0.0919
     47 H13         2.8951    2.5795   23.5169 H           1 YKI       0.0603
     48 H14         2.2648    3.2399   21.2873 H           1 YKI       0.0563
     49 H15         1.9066    5.5776   20.7527 H           1 YKI       0.0597
     50 H16         2.1769    7.2793   22.4719 H           1 YKI       0.0566
     51 H17        -1.8421   10.9158   22.4555 H           1 YKI       0.0983
     52 H18         0.3213    9.6751   23.2034 H           1 YKI       0.0310
@<TRIPOS>BOND
     1     1     2  ar
     2     5     1  ar
     3     3     2  ar
     4    11     3  ar
     5     7     4   1
     6     4    11   1
     7     9     5  ar
     8     7     6   2
     9     6     9   1
    10    13     7   1
    11     8    17  am
    12    22     8   1
    13     9    11  ar
    14    21    10  ar
    15    10    32  ar
    16    32    12   1
    17    12    33   1
    18    16    13  ar
    19    13    24  ar
    20    14    15  ar
    21    23    14  ar
    22    15    16  ar
    23    17    18   1
    24    17    19   2
    25    18    20  ar
    26    18    31  ar
    27    20    21  ar
    28    22    23   1
    29    22    25   1
    30    23    24  ar
    31    24    26   1
    32    25    26  ar
    33    25    30  ar
    34    26    27  ar
    35    27    28  ar
    36    28    29  ar
    37    29    30  ar
    38    31    32  ar
    39    31    34   1
    40    33    34   2
    41     1    35   1
    42     3    36   1
    43     4    37   1
    44     5    38   1
    45     8    39   1
    46    12    40   1
    47    14    41   1
    48    15    42   1
    49    16    43   1
    50    20    44   1
    51    21    45   1
    52    22    46   1
    53    27    47   1
    54    28    48   1
    55    29    49   1
    56    30    50   1
    57    33    51   1
    58    34    52   1
@<TRIPOS>SUBSTRUCTURE
     1  YKI      1

