@<TRIPOS>MOLECULE
2yki_ligand_031
    52    58
SMALL
GAST_HUCK
****
This file was generated by PARSER (from files_GN.cpp)

@<TRIPOS>ATOM
      1 C1         23.0810    5.5892   31.6493 C.ar        1 YKI      -0.0069
      2 N1         22.4478    5.1977   32.7924 N.ar        1 YKI      -0.3145
      3 C2         21.1932    5.6101   33.1248 C.ar        1 YKI       0.0318
      4 N2         19.3189    7.0436   32.2850 N.pl3       1 YKI      -0.2421
      5 C3         22.4395    6.4612   30.7450 C.ar        1 YKI      -0.0358
      6 N3         20.2976    7.7094   30.4232 N.2         1 YKI      -0.2951
      7 C4         19.1921    7.8173   31.1921 C.2         1 YKI       0.1441
      8 N4         15.6092   12.2715   32.2386 N.am        1 YKI      -0.2584
      9 C5         21.1433    6.8947   31.0709 C.ar        1 YKI       0.0509
     10 N5         15.9223   17.0563   30.7424 N.ar        1 YKI      -0.2805
     11 C6         20.5263    6.4757   32.2459 C.ar        1 YKI       0.1092
     12 N6         16.1740   17.2401   33.1620 N.pl3       1 YKI      -0.2631
     13 C7         18.0500    8.5717   30.8730 C.ar        1 YKI       0.0361
     14 C8         15.6753    9.9516   30.1343 C.ar        1 YKI      -0.0512
     15 C9         16.4046    9.2314   29.1741 C.ar        1 YKI      -0.0623
     16 C10        17.5775    8.5459   29.5386 C.ar        1 YKI      -0.0499
     17 C11        16.3568   12.9399   31.3632 C.2         1 YKI       0.2116
     18 C12        16.1757   14.2921   31.1703 C.ar        1 YKI       0.0544
     19 O13        17.1744   12.3853   30.6398 O.2         1 YKI      -0.3825
     20 C14        16.0210   14.8189   29.8624 C.ar        1 YKI      -0.0315
     21 C15        15.8845   16.2105   29.6773 C.ar        1 YKI       0.0006
     22 C16        15.6223   10.8615   32.5304 C.3         1 YKI       0.1112
     23 C17        16.1552    9.9993   31.4564 C.ar        1 YKI       0.0062
     24 C18        17.3459    9.3498   31.8300 C.ar        1 YKI       0.0013
     25 C19        16.5712   10.5445   33.6088 C.ar        1 YKI       0.0020
     26 C20        17.6030    9.7015   33.1681 C.ar        1 YKI      -0.0129
     27 C21        18.6779    9.4199   34.0411 C.ar        1 YKI      -0.0610
     28 C22        18.6492    9.8931   35.3675 C.ar        1 YKI      -0.0680
     29 C23        17.5689   10.6746   35.8187 C.ar        1 YKI      -0.0680
     30 C24        16.5293   11.0191   34.9352 C.ar        1 YKI      -0.0553
     31 C25        16.1959   15.2071   32.2477 C.ar        1 YKI       0.0172
     32 C26        16.0803   16.5771   31.9993 C.ar        1 YKI       0.1409
     33 C27        16.3473   16.3549   34.1583 C.2         1 YKI       0.0293
     34 C28        16.3693   15.0706   33.6206 C.2         1 YKI      -0.0523
     35 H1         24.0225    5.2464   31.4526 H           1 YKI       0.0705
     36 H2         20.7530    5.2976   33.9909 H           1 YKI       0.0763
     37 H3         18.6606    6.9394   32.9896 H           1 YKI       0.2328
     38 H4         22.8990    6.7698   29.8860 H           1 YKI       0.0643
     39 H5         14.9649   12.7946   32.7473 H           1 YKI       0.1910
     40 H6         16.1408   18.2050   33.2662 H           1 YKI       0.2313
     41 H7         14.8365   10.4704   29.8674 H           1 YKI       0.0605
     42 H8         16.0907    9.2124   28.2025 H           1 YKI       0.0605
     43 H9         18.0663    8.0022   28.8223 H           1 YKI       0.0619
     44 H10        15.9930   14.1999   29.0464 H           1 YKI       0.0656
     45 H11        15.7615   16.5900   28.7390 H           1 YKI       0.0758
     46 H12        14.6204   10.5291   32.8095 H           1 YKI       0.0919
     47 H13        19.4920    8.8930   33.7326 H           1 YKI       0.0603
     48 H14        19.4196    9.6762   36.0037 H           1 YKI       0.0563
     49 H15        17.5518   11.0174   36.7826 H           1 YKI       0.0597
     50 H16        15.7618   11.6147   35.2493 H           1 YKI       0.0566
     51 H17        16.4605   16.5891   35.1459 H           1 YKI       0.0983
     52 H18        16.5079   14.2021   34.1390 H           1 YKI       0.0310
@<TRIPOS>BOND
     1     1     2  ar
     2     5     1  ar
     3     3     2  ar
     4    11     3  ar
     5     7     4   1
     6     4    11   1
     7     9     5  ar
     8     7     6   2
     9     6     9   1
    10    13     7   1
    11     8    17  am
    12    22     8   1
    13     9    11  ar
    14    21    10  ar
    15    10    32  ar
    16    32    12   1
    17    12    33   1
    18    16    13  ar
    19    13    24  ar
    20    14    15  ar
    21    23    14  ar
    22    15    16  ar
    23    17    18   1
    24    17    19   2
    25    18    20  ar
    26    18    31  ar
    27    20    21  ar
    28    22    23   1
    29    22    25   1
    30    23    24  ar
    31    24    26   1
    32    25    26  ar
    33    25    30  ar
    34    26    27  ar
    35    27    28  ar
    36    28    29  ar
    37    29    30  ar
    38    31    32  ar
    39    31    34   1
    40    33    34   2
    41     1    35   1
    42     3    36   1
    43     4    37   1
    44     5    38   1
    45     8    39   1
    46    12    40   1
    47    14    41   1
    48    15    42   1
    49    16    43   1
    50    20    44   1
    51    21    45   1
    52    22    46   1
    53    27    47   1
    54    28    48   1
    55    29    49   1
    56    30    50   1
    57    33    51   1
    58    34    52   1
@<TRIPOS>SUBSTRUCTURE
     1  YKI      1

