@<TRIPOS>MOLECULE
2yki_ligand_036
    52    58
SMALL
GAST_HUCK
****
This file was generated by PARSER (from files_GN.cpp)

@<TRIPOS>ATOM
      1 C1          5.4629   15.9940   26.8473 C.ar        1 YKI      -0.0069
      2 N1          5.9326   16.5928   25.7198 N.ar        1 YKI      -0.3145
      3 C2          6.5629   15.9137   24.7223 C.ar        1 YKI       0.0318
      4 N2          7.1883   13.5791   24.0395 N.pl3       1 YKI      -0.2421
      5 C3          5.6277   14.6027   27.0302 C.ar        1 YKI      -0.0358
      6 N3          6.4426   12.5561   25.8400 N.2         1 YKI      -0.2951
      7 C4          7.0027   12.3808   24.6286 C.2         1 YKI       0.1441
      8 N4          5.6146    6.9496   22.7578 N.am        1 YKI      -0.2584
      9 C5          6.2375   13.8781   25.9936 C.ar        1 YKI       0.0509
     10 N5          3.3033    5.3744   18.5525 N.ar        1 YKI      -0.2805
     11 C6          6.7024   14.5235   24.8500 C.ar        1 YKI       0.1092
     12 N6          2.5852    3.6458   20.1060 N.pl3       1 YKI      -0.2631
     13 C7          7.3495   11.1361   24.0472 C.ar        1 YKI       0.0361
     14 C8          8.2808    8.6853   22.9377 C.ar        1 YKI      -0.0512
     15 C9          9.0275    9.8553   22.7713 C.ar        1 YKI      -0.0623
     16 C10         8.5700   11.0724   23.3211 C.ar        1 YKI      -0.0499
     17 C11         4.6812    7.4361   21.9497 C.2         1 YKI       0.2116
     18 C12         4.2159    6.7334   20.8498 C.ar        1 YKI       0.0544
     19 O13         4.1671    8.5378   22.1787 O.2         1 YKI      -0.3825
     20 C14         4.3403    7.2956   19.5526 C.ar        1 YKI      -0.0315
     21 C15         3.8898    6.5912   18.4177 C.ar        1 YKI       0.0006
     22 C16         6.1859    7.5843   23.9198 C.3         1 YKI       0.1112
     23 C17         7.0666    8.7335   23.6437 C.ar        1 YKI       0.0062
     24 C18         6.5779    9.9473   24.1788 C.ar        1 YKI       0.0013
     25 C19         5.1580    8.2487   24.7337 C.ar        1 YKI       0.0020
     26 C20         5.3350    9.6392   24.7811 C.ar        1 YKI      -0.0129
     27 C21         4.3017   10.4429   25.3129 C.ar        1 YKI      -0.0610
     28 C22         3.1606    9.8279   25.8705 C.ar        1 YKI      -0.0680
     29 C23         3.0447    8.4239   25.9087 C.ar        1 YKI      -0.0680
     30 C24         4.0470    7.6216   25.3309 C.ar        1 YKI      -0.0553
     31 C25         3.5927    5.4610   20.9415 C.ar        1 YKI       0.0172
     32 C26         3.1533    4.8144   19.7803 C.ar        1 YKI       0.1409
     33 C27         2.6140    3.5084   21.4436 C.2         1 YKI       0.0293
     34 C28         3.2320    4.6281   21.9944 C.2         1 YKI      -0.0523
     35 H1          4.9861   16.5553   27.5533 H           1 YKI       0.0705
     36 H2          6.9113   16.4070   23.8970 H           1 YKI       0.0763
     37 H3          7.5678   13.7323   23.1583 H           1 YKI       0.2328
     38 H4          5.2864   14.1329   27.8717 H           1 YKI       0.0643
     39 H5          5.9726    6.0746   22.5316 H           1 YKI       0.1910
     40 H6          2.1996    3.0103   19.4807 H           1 YKI       0.2313
     41 H7          8.6217    7.7994   22.5542 H           1 YKI       0.0605
     42 H8          9.9182    9.8286   22.2688 H           1 YKI       0.0605
     43 H9          9.1591   11.8984   23.2096 H           1 YKI       0.0619
     44 H10         4.7748    8.2144   19.4242 H           1 YKI       0.0656
     45 H11         3.9998    6.9943   17.4855 H           1 YKI       0.0758
     46 H12         6.7177    6.8477   24.5245 H           1 YKI       0.0919
     47 H13         4.3491   11.4580   25.2689 H           1 YKI       0.0603
     48 H14         2.3975   10.3981   26.2374 H           1 YKI       0.0563
     49 H15         2.2200    7.9802   26.3197 H           1 YKI       0.0597
     50 H16         3.9530    6.6012   25.3123 H           1 YKI       0.0566
     51 H17         2.2305    2.7167   21.9594 H           1 YKI       0.0983
     52 H18         3.3655    4.8020   22.9915 H           1 YKI       0.0310
@<TRIPOS>BOND
     1     1     2  ar
     2     5     1  ar
     3     3     2  ar
     4    11     3  ar
     5     7     4   1
     6     4    11   1
     7     9     5  ar
     8     7     6   2
     9     6     9   1
    10    13     7   1
    11     8    17  am
    12    22     8   1
    13     9    11  ar
    14    21    10  ar
    15    10    32  ar
    16    32    12   1
    17    12    33   1
    18    16    13  ar
    19    13    24  ar
    20    14    15  ar
    21    23    14  ar
    22    15    16  ar
    23    17    18   1
    24    17    19   2
    25    18    20  ar
    26    18    31  ar
    27    20    21  ar
    28    22    23   1
    29    22    25   1
    30    23    24  ar
    31    24    26   1
    32    25    26  ar
    33    25    30  ar
    34    26    27  ar
    35    27    28  ar
    36    28    29  ar
    37    29    30  ar
    38    31    32  ar
    39    31    34   1
    40    33    34   2
    41     1    35   1
    42     3    36   1
    43     4    37   1
    44     5    38   1
    45     8    39   1
    46    12    40   1
    47    14    41   1
    48    15    42   1
    49    16    43   1
    50    20    44   1
    51    21    45   1
    52    22    46   1
    53    27    47   1
    54    28    48   1
    55    29    49   1
    56    30    50   1
    57    33    51   1
    58    34    52   1
@<TRIPOS>SUBSTRUCTURE
     1  YKI      1

