@<TRIPOS>MOLECULE
2yki_ligand_091
    52    58
SMALL
GAST_HUCK
****
This file was generated by PARSER (from files_GN.cpp)

@<TRIPOS>ATOM
      1 C1         -3.3146   13.9115   22.7027 C.ar        1 YKI      -0.0069
      2 N1         -2.9322   13.9460   21.3948 N.ar        1 YKI      -0.3145
      3 C2         -1.7423   13.4499   20.9541 C.ar        1 YKI       0.0318
      4 N2          0.3176   12.2836   21.7777 N.pl3       1 YKI      -0.2421
      5 C3         -2.4621   13.3392   23.6709 C.ar        1 YKI      -0.0358
      6 N3         -0.2495   12.1834   23.9078 N.2         1 YKI      -0.2951
      7 C4          0.6855   11.8357   22.9974 C.2         1 YKI       0.1441
      8 N4          3.5552    6.8381   23.5453 N.am        1 YKI      -0.2584
      9 C5         -1.2283   12.8158   23.2399 C.ar        1 YKI       0.0509
     10 N5          5.7525    3.2840   20.7422 N.ar        1 YKI      -0.2805
     11 C6         -0.8758   12.8694   21.8930 C.ar        1 YKI       0.1092
     12 N6          4.5835    4.6711   19.1204 N.pl3       1 YKI      -0.2631
     13 C7          1.8870   11.1358   23.2591 C.ar        1 YKI       0.0361
     14 C8          4.3977    9.8236   23.5807 C.ar        1 YKI      -0.0512
     15 C9          4.3446   11.1211   23.0548 C.ar        1 YKI      -0.0623
     16 C10         3.1027   11.7662   22.8911 C.ar        1 YKI      -0.0499
     17 C11         4.7540    6.2672   23.5340 C.2         1 YKI       0.2116
     18 C12         5.0771    5.2944   22.5986 C.ar        1 YKI       0.0544
     19 O13         5.5763    6.5574   24.3946 O.2         1 YKI      -0.3825
     20 C14         5.8673    4.1739   22.9754 C.ar        1 YKI      -0.0315
     21 C15         6.1772    3.1750   22.0283 C.ar        1 YKI       0.0006
     22 C16         3.0960    7.8246   24.4827 C.3         1 YKI       0.1112
     23 C17         3.1977    9.1853   23.9407 C.ar        1 YKI       0.0062
     24 C18         1.9515    9.8200   23.7948 C.ar        1 YKI       0.0013
     25 C19         1.6450    7.7375   24.6679 C.ar        1 YKI       0.0020
     26 C20         0.9883    8.9052   24.2581 C.ar        1 YKI      -0.0129
     27 C21        -0.4140    8.9851   24.3942 C.ar        1 YKI      -0.0610
     28 C22        -1.1154    7.9191   24.9915 C.ar        1 YKI      -0.0680
     29 C23        -0.4438    6.7514   25.3983 C.ar        1 YKI      -0.0680
     30 C24         0.9475    6.6469   25.2206 C.ar        1 YKI      -0.0553
     31 C25         4.6728    5.3703   21.2413 C.ar        1 YKI       0.0172
     32 C26         5.0223    4.3534   20.3470 C.ar        1 YKI       0.1409
     33 C27         3.9665    5.8627   19.1737 C.2         1 YKI       0.0293
     34 C28         3.9971    6.3273   20.4844 C.2         1 YKI      -0.0523
     35 H1         -4.2299   14.2762   22.9734 H           1 YKI       0.0705
     36 H2         -1.5046   13.4761   19.9636 H           1 YKI       0.0763
     37 H3          0.8115   12.1800   20.9498 H           1 YKI       0.2328
     38 H4         -2.7426   13.2794   24.6497 H           1 YKI       0.0643
     39 H5          2.9169    6.5428   22.8706 H           1 YKI       0.1910
     40 H6          4.7355    4.1565   18.3121 H           1 YKI       0.2313
     41 H7          5.2963    9.3489   23.6944 H           1 YKI       0.0605
     42 H8          5.2097   11.5944   22.7850 H           1 YKI       0.0605
     43 H9          3.0948   12.7102   22.4974 H           1 YKI       0.0619
     44 H10         6.2031    4.0635   23.9375 H           1 YKI       0.0656
     45 H11         6.7296    2.3602   22.3045 H           1 YKI       0.0758
     46 H12         3.5949    7.7623   25.4563 H           1 YKI       0.0919
     47 H13        -0.9429    9.7989   24.0781 H           1 YKI       0.0603
     48 H14        -2.1249    8.0000   25.1124 H           1 YKI       0.0563
     49 H15        -0.9698    5.9847   25.8213 H           1 YKI       0.0597
     50 H16         1.4435    5.7980   25.5047 H           1 YKI       0.0566
     51 H17         3.5716    6.3595   18.3737 H           1 YKI       0.0983
     52 H18         3.6303    7.2242   20.8059 H           1 YKI       0.0310
@<TRIPOS>BOND
     1     1     2  ar
     2     5     1  ar
     3     3     2  ar
     4    11     3  ar
     5     7     4   1
     6     4    11   1
     7     9     5  ar
     8     7     6   2
     9     6     9   1
    10    13     7   1
    11     8    17  am
    12    22     8   1
    13     9    11  ar
    14    21    10  ar
    15    10    32  ar
    16    32    12   1
    17    12    33   1
    18    16    13  ar
    19    13    24  ar
    20    14    15  ar
    21    23    14  ar
    22    15    16  ar
    23    17    18   1
    24    17    19   2
    25    18    20  ar
    26    18    31  ar
    27    20    21  ar
    28    22    23   1
    29    22    25   1
    30    23    24  ar
    31    24    26   1
    32    25    26  ar
    33    25    30  ar
    34    26    27  ar
    35    27    28  ar
    36    28    29  ar
    37    29    30  ar
    38    31    32  ar
    39    31    34   1
    40    33    34   2
    41     1    35   1
    42     3    36   1
    43     4    37   1
    44     5    38   1
    45     8    39   1
    46    12    40   1
    47    14    41   1
    48    15    42   1
    49    16    43   1
    50    20    44   1
    51    21    45   1
    52    22    46   1
    53    27    47   1
    54    28    48   1
    55    29    49   1
    56    30    50   1
    57    33    51   1
    58    34    52   1
@<TRIPOS>SUBSTRUCTURE
     1  YKI      1

