@<TRIPOS>MOLECULE
2yki_ligand_089
    52    58
SMALL
GAST_HUCK
****
This file was generated by PARSER (from files_GN.cpp)

@<TRIPOS>ATOM
      1 C1         14.4156    0.0167   23.7909 C.ar        1 YKI      -0.0069
      2 N1         13.9677   -1.1900   24.2435 N.ar        1 YKI      -0.3145
      3 C2         12.7541   -1.7071   23.9065 C.ar        1 YKI       0.0318
      4 N2         10.7157   -1.1900   22.5395 N.pl3       1 YKI      -0.2421
      5 C3         13.6094    0.7937   22.9303 C.ar        1 YKI      -0.0358
      6 N3         11.3941    0.7721   21.7807 N.2         1 YKI      -0.2951
      7 C4         10.3941   -0.1311   21.7747 C.2         1 YKI       0.1441
      8 N4          5.5164    2.8356   20.8433 N.am        1 YKI      -0.2584
      9 C5         12.3536    0.2762   22.5743 C.ar        1 YKI       0.0509
     10 N5          3.8697    6.9160   18.4121 N.ar        1 YKI      -0.2805
     11 C6         11.9258   -0.9610   23.0528 C.ar        1 YKI       0.1092
     12 N6          2.7649    5.6938   16.6160 N.pl3       1 YKI      -0.2631
     13 C7          9.2078    0.0124   21.0455 C.ar        1 YKI       0.0361
     14 C8          6.8931    0.3794   19.4436 C.ar        1 YKI      -0.0512
     15 C9          8.0099   -0.3042   18.9273 C.ar        1 YKI      -0.0623
     16 C10         9.1622   -0.4787   19.7193 C.ar        1 YKI      -0.0499
     17 C11         4.3834    3.1351   20.2118 C.2         1 YKI       0.2116
     18 C12         4.2021    4.3791   19.6162 C.ar        1 YKI       0.0544
     19 O13         3.4952    2.2991   20.1170 O.2         1 YKI      -0.3825
     20 C14         4.6889    5.5620   20.2310 C.ar        1 YKI      -0.0315
     21 C15         4.5003    6.8194   19.6149 C.ar        1 YKI       0.0006
     22 C16         5.8521    1.5809   21.4636 C.3         1 YKI       0.1112
     23 C17         6.9385    0.8723   20.7605 C.ar        1 YKI       0.0062
     24 C18         8.0727    0.6783   21.5686 C.ar        1 YKI       0.0013
     25 C19         6.4904    1.7719   22.7776 C.ar        1 YKI       0.0020
     26 C20         7.7820    1.2245   22.8277 C.ar        1 YKI      -0.0129
     27 C21         8.5133    1.2642   24.0352 C.ar        1 YKI      -0.0610
     28 C22         7.9335    1.8579   25.1789 C.ar        1 YKI      -0.0680
     29 C23         6.6376    2.4124   25.1134 C.ar        1 YKI      -0.0680
     30 C24         5.9141    2.3793   23.9071 C.ar        1 YKI      -0.0553
     31 C25         3.5323    4.5365   18.3736 C.ar        1 YKI       0.0172
     32 C26         3.3983    5.8053   17.7965 C.ar        1 YKI       0.1409
     33 C27         2.5003    4.3972   16.3878 C.2         1 YKI       0.0293
     34 C28         2.9537    3.6495   17.4704 C.2         1 YKI      -0.0523
     35 H1         15.3383    0.3517   24.0721 H           1 YKI       0.0705
     36 H2         12.4581   -2.6165   24.2629 H           1 YKI       0.0763
     37 H3         10.1681   -1.9742   22.6958 H           1 YKI       0.2328
     38 H4         13.9293    1.6961   22.5757 H           1 YKI       0.0643
     39 H5          6.2077    3.5156   20.8537 H           1 YKI       0.1910
     40 H6          2.5481    6.4272   16.0169 H           1 YKI       0.2313
     41 H7          6.0586    0.5113   18.8663 H           1 YKI       0.0605
     42 H8          7.9858   -0.6689   17.9710 H           1 YKI       0.0605
     43 H9          9.9684   -0.9641   19.3107 H           1 YKI       0.0619
     44 H10         5.1605    5.5292   21.1381 H           1 YKI       0.0656
     45 H11         4.8469    7.6711   20.0648 H           1 YKI       0.0758
     46 H12         4.9960    0.9111   21.5730 H           1 YKI       0.0919
     47 H13         9.4506    0.8631   24.1074 H           1 YKI       0.0603
     48 H14         8.4541    1.8800   26.0622 H           1 YKI       0.0563
     49 H15         6.2264    2.8393   25.9455 H           1 YKI       0.0597
     50 H16         4.9786    2.7850   23.8567 H           1 YKI       0.0566
     51 H17         2.0393    4.0252   15.5587 H           1 YKI       0.0983
     52 H18         2.8812    2.6342   17.5643 H           1 YKI       0.0310
@<TRIPOS>BOND
     1     1     2  ar
     2     5     1  ar
     3     3     2  ar
     4    11     3  ar
     5     7     4   1
     6     4    11   1
     7     9     5  ar
     8     7     6   2
     9     6     9   1
    10    13     7   1
    11     8    17  am
    12    22     8   1
    13     9    11  ar
    14    21    10  ar
    15    10    32  ar
    16    32    12   1
    17    12    33   1
    18    16    13  ar
    19    13    24  ar
    20    14    15  ar
    21    23    14  ar
    22    15    16  ar
    23    17    18   1
    24    17    19   2
    25    18    20  ar
    26    18    31  ar
    27    20    21  ar
    28    22    23   1
    29    22    25   1
    30    23    24  ar
    31    24    26   1
    32    25    26  ar
    33    25    30  ar
    34    26    27  ar
    35    27    28  ar
    36    28    29  ar
    37    29    30  ar
    38    31    32  ar
    39    31    34   1
    40    33    34   2
    41     1    35   1
    42     3    36   1
    43     4    37   1
    44     5    38   1
    45     8    39   1
    46    12    40   1
    47    14    41   1
    48    15    42   1
    49    16    43   1
    50    20    44   1
    51    21    45   1
    52    22    46   1
    53    27    47   1
    54    28    48   1
    55    29    49   1
    56    30    50   1
    57    33    51   1
    58    34    52   1
@<TRIPOS>SUBSTRUCTURE
     1  YKI      1

