@<TRIPOS>MOLECULE
2yki_ligand_030
    52    58
SMALL
GAST_HUCK
****
This file was generated by PARSER (from files_GN.cpp)

@<TRIPOS>ATOM
      1 C1          0.1042    2.6877   27.3635 C.ar        1 YKI      -0.0069
      2 N1          1.2888    2.7248   28.0405 N.ar        1 YKI      -0.3145
      3 C2          2.3238    3.5305   27.6761 C.ar        1 YKI       0.0318
      4 N2          2.9501    5.2691   25.9825 N.pl3       1 YKI      -0.2421
      5 C3         -0.1008    3.5167   26.2404 C.ar        1 YKI      -0.0358
      6 N3          1.0415    5.2650   24.8670 N.2         1 YKI      -0.2951
      7 C4          2.2714    5.8129   24.9606 C.2         1 YKI       0.1441
      8 N4          3.6678   11.4476   24.0515 N.am        1 YKI      -0.2584
      9 C5          0.9504    4.3668   25.8612 C.ar        1 YKI       0.0509
     10 N5          7.8102   14.0582   24.8991 N.ar        1 YKI      -0.2805
     11 C6          2.1529    4.3736   26.5657 C.ar        1 YKI       0.1092
     12 N6          6.1085   15.7716   25.0911 N.pl3       1 YKI      -0.2631
     13 C7          2.7791    6.8129   24.1158 C.ar        1 YKI       0.0361
     14 C8          3.9391    8.7687   22.4172 C.ar        1 YKI      -0.0512
     15 C9          4.2434    7.4063   22.2399 C.ar        1 YKI      -0.0623
     16 C10         3.6731    6.4362   23.0868 C.ar        1 YKI      -0.0499
     17 C11         4.6175   11.3471   24.9767 C.2         1 YKI       0.2116
     18 C12         5.6598   12.2463   25.0144 C.ar        1 YKI       0.0544
     19 O13         4.6363   10.4023   25.7732 O.2         1 YKI      -0.3825
     20 C14         7.0056   11.7958   24.9337 C.ar        1 YKI      -0.0315
     21 C15         8.0633   12.7235   24.8576 C.ar        1 YKI       0.0006
     22 C16         2.6120   10.5208   23.7637 C.3         1 YKI       0.1112
     23 C17         3.0466    9.1489   23.4362 C.ar        1 YKI       0.0062
     24 C18         2.4726    8.1867   24.2879 C.ar        1 YKI       0.0013
     25 C19         1.7227   10.2462   24.9018 C.ar        1 YKI       0.0020
     26 C20         1.6630    8.8773   25.2017 C.ar        1 YKI      -0.0129
     27 C21         0.8845    8.4402   26.2964 C.ar        1 YKI      -0.0610
     28 C22         0.1739    9.3843   27.0653 C.ar        1 YKI      -0.0680
     29 C23         0.2301   10.7551   26.7447 C.ar        1 YKI      -0.0680
     30 C24         1.0037   11.1947   25.6520 C.ar        1 YKI      -0.0553
     31 C25         5.4456   13.6465   25.0732 C.ar        1 YKI       0.0172
     32 C26         6.5432   14.5106   25.0220 C.ar        1 YKI       0.1409
     33 C27         4.7754   15.7748   25.2258 C.2         1 YKI       0.0293
     34 C28         4.3212   14.4606   25.2228 C.2         1 YKI      -0.0523
     35 H1         -0.6363    2.0607   27.6822 H           1 YKI       0.0705
     36 H2          3.1942    3.5333   28.2056 H           1 YKI       0.0763
     37 H3          3.8527    5.4972   26.2672 H           1 YKI       0.2328
     38 H4         -0.9842    3.5048   25.7245 H           1 YKI       0.0643
     39 H5          3.7340   12.2177   23.4547 H           1 YKI       0.1910
     40 H6          6.6775   16.5517   25.0387 H           1 YKI       0.2313
     41 H7          4.3606    9.4724   21.8071 H           1 YKI       0.0605
     42 H8          4.8883    7.1191   21.5001 H           1 YKI       0.0605
     43 H9          3.9103    5.4491   22.9359 H           1 YKI       0.0619
     44 H10         7.2194   10.7955   24.8878 H           1 YKI       0.0656
     45 H11         9.0247   12.4103   24.7433 H           1 YKI       0.0758
     46 H12         2.0268   10.9207   22.9383 H           1 YKI       0.0919
     47 H13         0.8436    7.4550   26.5557 H           1 YKI       0.0603
     48 H14        -0.3816    9.0713   27.8652 H           1 YKI       0.0563
     49 H15        -0.2766   11.4363   27.3159 H           1 YKI       0.0597
     50 H16         1.0573   12.1907   25.4233 H           1 YKI       0.0566
     51 H17         4.1993   16.6131   25.3257 H           1 YKI       0.0983
     52 H18         3.3509   14.1553   25.3364 H           1 YKI       0.0310
@<TRIPOS>BOND
     1     1     2  ar
     2     5     1  ar
     3     3     2  ar
     4    11     3  ar
     5     7     4   1
     6     4    11   1
     7     9     5  ar
     8     7     6   2
     9     6     9   1
    10    13     7   1
    11     8    17  am
    12    22     8   1
    13     9    11  ar
    14    21    10  ar
    15    10    32  ar
    16    32    12   1
    17    12    33   1
    18    16    13  ar
    19    13    24  ar
    20    14    15  ar
    21    23    14  ar
    22    15    16  ar
    23    17    18   1
    24    17    19   2
    25    18    20  ar
    26    18    31  ar
    27    20    21  ar
    28    22    23   1
    29    22    25   1
    30    23    24  ar
    31    24    26   1
    32    25    26  ar
    33    25    30  ar
    34    26    27  ar
    35    27    28  ar
    36    28    29  ar
    37    29    30  ar
    38    31    32  ar
    39    31    34   1
    40    33    34   2
    41     1    35   1
    42     3    36   1
    43     4    37   1
    44     5    38   1
    45     8    39   1
    46    12    40   1
    47    14    41   1
    48    15    42   1
    49    16    43   1
    50    20    44   1
    51    21    45   1
    52    22    46   1
    53    27    47   1
    54    28    48   1
    55    29    49   1
    56    30    50   1
    57    33    51   1
    58    34    52   1
@<TRIPOS>SUBSTRUCTURE
     1  YKI      1

