@<TRIPOS>MOLECULE
2yki_ligand_045
    52    58
SMALL
GAST_HUCK
****
This file was generated by PARSER (from files_GN.cpp)

@<TRIPOS>ATOM
      1 C1          3.3939    4.6455   19.4658 C.ar        1 YKI      -0.0069
      2 N1          3.6077    4.1712   20.7278 N.ar        1 YKI      -0.3145
      3 C2          4.1347    4.9286   21.7299 C.ar        1 YKI       0.0318
      4 N2          5.0043    7.2443   22.1864 N.pl3       1 YKI      -0.2421
      5 C3          3.7225    5.9792   19.1483 C.ar        1 YKI      -0.0358
      6 N3          4.6763    8.0530   20.1571 N.2         1 YKI      -0.2951
      7 C4          5.1125    8.3348   21.4022 C.2         1 YKI       0.1441
      8 N4          5.8647   13.0502   24.9039 N.am        1 YKI      -0.2584
      9 C5          4.2641    6.7777   20.1704 C.ar        1 YKI       0.0509
     10 N5          8.9571   15.0025   28.2830 N.ar        1 YKI      -0.2805
     11 C6          4.4721    6.2648   21.4488 C.ar        1 YKI       0.1092
     12 N6         10.8531   13.8357   27.2682 N.pl3       1 YKI      -0.2631
     13 C7          5.7162    9.5607   21.7333 C.ar        1 YKI       0.0361
     14 C8          6.9397   12.1068   22.0688 C.ar        1 YKI      -0.0512
     15 C9          7.4668   11.1859   21.1509 C.ar        1 YKI      -0.0623
     16 C10         6.8571    9.9339   20.9844 C.ar        1 YKI      -0.0499
     17 C11         6.8975   13.8827   24.8484 C.2         1 YKI       0.2116
     18 C12         7.5564   14.2089   26.0025 C.ar        1 YKI       0.0544
     19 O13         7.3015   14.3979   23.8144 O.2         1 YKI      -0.3825
     20 C14         6.9113   14.9531   27.0230 C.ar        1 YKI      -0.0315
     21 C15         7.6455   15.3391   28.1602 C.ar        1 YKI       0.0006
     22 C16         5.0839   12.6275   23.7811 C.3         1 YKI       0.1112
     23 C17         5.8090   11.7511   22.8309 C.ar        1 YKI       0.0062
     24 C18         5.2018   10.4862   22.6842 C.ar        1 YKI       0.0013
     25 C19         4.0067   11.7074   24.1831 C.ar        1 YKI       0.0020
     26 C20         4.0917   10.4614   23.5414 C.ar        1 YKI      -0.0129
     27 C21         3.1380    9.4594   23.8294 C.ar        1 YKI      -0.0610
     28 C22         2.1112    9.7248   24.7574 C.ar        1 YKI      -0.0680
     29 C23         2.0144   10.9849   25.3774 C.ar        1 YKI      -0.0680
     30 C24         2.9577   11.9880   25.0799 C.ar        1 YKI      -0.0553
     31 C25         8.9172   13.8793   26.1687 C.ar        1 YKI       0.0172
     32 C26         9.5888   14.2830   27.3207 C.ar        1 YKI       0.1409
     33 C27        11.0311   13.1585   26.1179 C.2         1 YKI       0.0293
     34 C28         9.8388   13.1760   25.3995 C.2         1 YKI      -0.0523
     35 H1          3.0046    4.0280   18.7526 H           1 YKI       0.0705
     36 H2          4.2835    4.5320   22.6591 H           1 YKI       0.0763
     37 H3          5.2807    7.1735   23.1132 H           1 YKI       0.2328
     38 H4          3.5839    6.3527   18.2063 H           1 YKI       0.0643
     39 H5          5.6068   12.7088   25.7763 H           1 YKI       0.1910
     40 H6         11.5224   13.9627   27.9575 H           1 YKI       0.2313
     41 H7          7.3628   13.0256   22.1574 H           1 YKI       0.0605
     42 H8          8.2792   11.4365   20.5792 H           1 YKI       0.0605
     43 H9          7.2610    9.2954   20.2949 H           1 YKI       0.0619
     44 H10         5.9287   15.2332   26.9343 H           1 YKI       0.0656
     45 H11         7.1952   15.8809   28.9022 H           1 YKI       0.0758
     46 H12         4.6345   13.4902   23.2832 H           1 YKI       0.0919
     47 H13         3.1753    8.5448   23.3836 H           1 YKI       0.0603
     48 H14         1.4269    8.9948   24.9812 H           1 YKI       0.0563
     49 H15         1.2583   11.1747   26.0404 H           1 YKI       0.0597
     50 H16         2.8846   12.9102   25.5170 H           1 YKI       0.0566
     51 H17        11.8967   12.7015   25.8239 H           1 YKI       0.0983
     52 H18         9.6768   12.7327   24.4920 H           1 YKI       0.0310
@<TRIPOS>BOND
     1     1     2  ar
     2     5     1  ar
     3     3     2  ar
     4    11     3  ar
     5     7     4   1
     6     4    11   1
     7     9     5  ar
     8     7     6   2
     9     6     9   1
    10    13     7   1
    11     8    17  am
    12    22     8   1
    13     9    11  ar
    14    21    10  ar
    15    10    32  ar
    16    32    12   1
    17    12    33   1
    18    16    13  ar
    19    13    24  ar
    20    14    15  ar
    21    23    14  ar
    22    15    16  ar
    23    17    18   1
    24    17    19   2
    25    18    20  ar
    26    18    31  ar
    27    20    21  ar
    28    22    23   1
    29    22    25   1
    30    23    24  ar
    31    24    26   1
    32    25    26  ar
    33    25    30  ar
    34    26    27  ar
    35    27    28  ar
    36    28    29  ar
    37    29    30  ar
    38    31    32  ar
    39    31    34   1
    40    33    34   2
    41     1    35   1
    42     3    36   1
    43     4    37   1
    44     5    38   1
    45     8    39   1
    46    12    40   1
    47    14    41   1
    48    15    42   1
    49    16    43   1
    50    20    44   1
    51    21    45   1
    52    22    46   1
    53    27    47   1
    54    28    48   1
    55    29    49   1
    56    30    50   1
    57    33    51   1
    58    34    52   1
@<TRIPOS>SUBSTRUCTURE
     1  YKI      1

