@<TRIPOS>MOLECULE
2yki_ligand_047
    52    58
SMALL
GAST_HUCK
****
This file was generated by PARSER (from files_GN.cpp)

@<TRIPOS>ATOM
      1 C1          8.8808    4.3960   29.7031 C.ar        1 YKI      -0.0069
      2 N1          8.7333    5.7227   29.9896 N.ar        1 YKI      -0.3145
      3 C2          7.7402    6.4943   29.4639 C.ar        1 YKI       0.0318
      4 N2          5.7849    6.3593   27.8867 N.pl3       1 YKI      -0.2421
      5 C3          7.9826    3.7614   28.8194 C.ar        1 YKI      -0.0358
      6 N3          6.0000    4.2212   27.3795 N.2         1 YKI      -0.2951
      7 C4          5.2944    5.3474   27.1444 C.2         1 YKI       0.1441
      8 N4          3.0126    6.5295   21.8863 N.am        1 YKI      -0.2584
      9 C5          6.9586    4.5421   28.2599 C.ar        1 YKI       0.0509
     10 N5          2.5383    3.9902   17.6609 N.ar        1 YKI      -0.2805
     11 C6          6.8310    5.8924   28.5766 C.ar        1 YKI       0.1092
     12 N6          3.0155    6.2658   16.8954 N.pl3       1 YKI      -0.2631
     13 C7          4.1974    5.4205   26.2657 C.ar        1 YKI       0.0361
     14 C8          1.8782    5.5384   24.6231 C.ar        1 YKI      -0.0512
     15 C9          1.9098    4.6910   25.7434 C.ar        1 YKI      -0.0623
     16 C10         3.0598    4.6271   26.5535 C.ar        1 YKI      -0.0499
     17 C11         3.6389    5.4457   21.4380 C.2         1 YKI       0.2116
     18 C12         3.3126    4.9480   20.1903 C.ar        1 YKI       0.0544
     19 O13         4.4433    4.8341   22.1300 O.2         1 YKI      -0.3825
     20 C14         2.9182    3.5986   20.0092 C.ar        1 YKI      -0.0315
     21 C15         2.5353    3.1427   18.7278 C.ar        1 YKI       0.0006
     22 C16         3.1688    7.1917   23.1536 C.3         1 YKI       0.1112
     23 C17         3.0169    6.3030   24.3163 C.ar        1 YKI       0.0062
     24 C18         4.1740    6.2531   25.1137 C.ar        1 YKI       0.0013
     25 C19         4.5306    7.6943   23.3865 C.ar        1 YKI       0.0020
     26 C20         5.1216    7.0999   24.5122 C.ar        1 YKI      -0.0129
     27 C21         6.4632    7.4032   24.8292 C.ar        1 YKI      -0.0610
     28 C22         7.1644    8.3539   24.0577 C.ar        1 YKI      -0.0680
     29 C23         6.5409    8.9835   22.9609 C.ar        1 YKI      -0.0680
     30 C24         5.2200    8.6461   22.6100 C.ar        1 YKI      -0.0553
     31 C25         3.3310    5.7808   19.0470 C.ar        1 YKI       0.0172
     32 C26         2.9289    5.2808   17.8057 C.ar        1 YKI       0.1409
     33 C27         3.4825    7.3748   17.4923 C.2         1 YKI       0.0293
     34 C28         3.7034    7.1049   18.8387 C.2         1 YKI      -0.0523
     35 H1          9.6482    3.8664   30.1240 H           1 YKI       0.0705
     36 H2          7.6752    7.4856   29.7019 H           1 YKI       0.0763
     37 H3          5.4350    7.2608   27.9233 H           1 YKI       0.2328
     38 H4          8.0771    2.7710   28.5857 H           1 YKI       0.0643
     39 H5          2.3507    6.9143   21.2940 H           1 YKI       0.1910
     40 H6          2.7867    6.2123   15.9549 H           1 YKI       0.2313
     41 H7          1.0452    5.5827   24.0321 H           1 YKI       0.0605
     42 H8          1.0882    4.1253   25.9751 H           1 YKI       0.0605
     43 H9          3.0491    4.0064   27.3659 H           1 YKI       0.0619
     44 H10         2.8804    2.9501   20.8023 H           1 YKI       0.0656
     45 H11         2.2384    2.1721   18.5966 H           1 YKI       0.0758
     46 H12         2.4562    8.0155   23.2200 H           1 YKI       0.0919
     47 H13         6.9421    6.9429   25.6033 H           1 YKI       0.0603
     48 H14         8.1321    8.5885   24.2909 H           1 YKI       0.0563
     49 H15         7.0518    9.6775   22.4081 H           1 YKI       0.0597
     50 H16         4.7700    9.0858   21.8036 H           1 YKI       0.0566
     51 H17         3.6425    8.2698   17.0310 H           1 YKI       0.0983
     52 H18         4.0756    7.7548   19.5324 H           1 YKI       0.0310
@<TRIPOS>BOND
     1     1     2  ar
     2     5     1  ar
     3     3     2  ar
     4    11     3  ar
     5     7     4   1
     6     4    11   1
     7     9     5  ar
     8     7     6   2
     9     6     9   1
    10    13     7   1
    11     8    17  am
    12    22     8   1
    13     9    11  ar
    14    21    10  ar
    15    10    32  ar
    16    32    12   1
    17    12    33   1
    18    16    13  ar
    19    13    24  ar
    20    14    15  ar
    21    23    14  ar
    22    15    16  ar
    23    17    18   1
    24    17    19   2
    25    18    20  ar
    26    18    31  ar
    27    20    21  ar
    28    22    23   1
    29    22    25   1
    30    23    24  ar
    31    24    26   1
    32    25    26  ar
    33    25    30  ar
    34    26    27  ar
    35    27    28  ar
    36    28    29  ar
    37    29    30  ar
    38    31    32  ar
    39    31    34   1
    40    33    34   2
    41     1    35   1
    42     3    36   1
    43     4    37   1
    44     5    38   1
    45     8    39   1
    46    12    40   1
    47    14    41   1
    48    15    42   1
    49    16    43   1
    50    20    44   1
    51    21    45   1
    52    22    46   1
    53    27    47   1
    54    28    48   1
    55    29    49   1
    56    30    50   1
    57    33    51   1
    58    34    52   1
@<TRIPOS>SUBSTRUCTURE
     1  YKI      1

