@<TRIPOS>MOLECULE
2yki_ligand_061
    52    58
SMALL
GAST_HUCK
****
This file was generated by PARSER (from files_GN.cpp)

@<TRIPOS>ATOM
      1 C1          4.6788   16.5676   26.2553 C.ar        1 YKI      -0.0069
      2 N1          5.9512   16.2513   26.6425 N.ar        1 YKI      -0.3145
      3 C2          6.4546   14.9885   26.5759 C.ar        1 YKI       0.0318
      4 N2          5.8043   12.6639   25.8818 N.pl3       1 YKI      -0.2421
      5 C3          3.8285   15.5731   25.7379 C.ar        1 YKI      -0.0358
      6 N3          3.7738   13.1513   25.1867 N.2         1 YKI      -0.2951
      7 C4          4.6888   12.1623   25.3143 C.2         1 YKI       0.1441
      8 N4          6.4665    6.7639   24.2042 N.am        1 YKI      -0.2584
      9 C5          4.3355   14.2692   25.6509 C.ar        1 YKI       0.0509
     10 N5          7.4543    2.5726   26.6582 N.ar        1 YKI      -0.2805
     11 C6          5.6268   13.9687   26.0775 C.ar        1 YKI       0.1092
     12 N6          8.3006    1.4659   24.6549 N.pl3       1 YKI      -0.2631
     13 C7          4.4422   10.8228   24.9477 C.ar        1 YKI       0.0361
     14 C8          3.7419    8.1418   24.2925 C.ar        1 YKI      -0.0512
     15 C9          2.7965    8.9864   24.8913 C.ar        1 YKI      -0.0623
     16 C10         3.1414   10.3074   25.2107 C.ar        1 YKI      -0.0499
     17 C11         6.0953    5.5075   23.9977 C.2         1 YKI       0.2116
     18 C12         6.5212    4.5360   24.8792 C.ar        1 YKI       0.0544
     19 O13         5.4157    5.1811   23.0357 O.2         1 YKI      -0.3825
     20 C14         6.3380    4.6708   26.2779 C.ar        1 YKI      -0.0315
     21 C15         6.8071    3.6648   27.1486 C.ar        1 YKI       0.0006
     22 C16         6.1083    7.8798   23.3906 C.3         1 YKI       0.1112
     23 C17         5.0285    8.6454   24.0261 C.ar        1 YKI       0.0062
     24 C18         5.3985    9.9672   24.3307 C.ar        1 YKI       0.0013
     25 C19         7.1656    8.8960   23.3657 C.ar        1 YKI       0.0020
     26 C20         6.7250   10.1293   23.8801 C.ar        1 YKI      -0.0129
     27 C21         7.5934   11.2423   23.7927 C.ar        1 YKI      -0.0610
     28 C22         8.8998   11.0912   23.2854 C.ar        1 YKI      -0.0680
     29 C23         9.3333    9.8409   22.8070 C.ar        1 YKI      -0.0680
     30 C24         8.4606    8.7364   22.8352 C.ar        1 YKI      -0.0553
     31 C25         7.2022    3.3862   24.4173 C.ar        1 YKI       0.0172
     32 C26         7.6569    2.4288   25.3261 C.ar        1 YKI       0.1409
     33 C27         8.2929    1.7606   23.3418 C.2         1 YKI       0.0293
     34 C28         7.6089    2.9605   23.1579 C.2         1 YKI      -0.0523
     35 H1          4.3511   17.5287   26.3441 H           1 YKI       0.0705
     36 H2          7.4167   14.7933   26.8682 H           1 YKI       0.0763
     37 H3          6.6146   12.1679   26.0808 H           1 YKI       0.2328
     38 H4          2.8754   15.7767   25.4359 H           1 YKI       0.0643
     39 H5          7.0016    6.9533   24.9937 H           1 YKI       0.1910
     40 H6          8.7253    0.6887   25.0522 H           1 YKI       0.2313
     41 H7          3.4904    7.1793   24.0560 H           1 YKI       0.0605
     42 H8          1.8569    8.6360   25.0944 H           1 YKI       0.0605
     43 H9          2.4283   10.8901   25.6633 H           1 YKI       0.0619
     44 H10         5.8657    5.4913   26.6696 H           1 YKI       0.0656
     45 H11         6.6826    3.7597   28.1579 H           1 YKI       0.0758
     46 H12         5.8272    7.6038   22.3700 H           1 YKI       0.0919
     47 H13         7.2918   12.1782   24.0444 H           1 YKI       0.0603
     48 H14         9.5313   11.8933   23.2430 H           1 YKI       0.0563
     49 H15        10.2706    9.7380   22.4114 H           1 YKI       0.0597
     50 H16         8.7671    7.8307   22.4630 H           1 YKI       0.0566
     51 H17         8.7277    1.2017   22.6086 H           1 YKI       0.0983
     52 H18         7.4542    3.4430   22.2713 H           1 YKI       0.0310
@<TRIPOS>BOND
     1     1     2  ar
     2     5     1  ar
     3     3     2  ar
     4    11     3  ar
     5     7     4   1
     6     4    11   1
     7     9     5  ar
     8     7     6   2
     9     6     9   1
    10    13     7   1
    11     8    17  am
    12    22     8   1
    13     9    11  ar
    14    21    10  ar
    15    10    32  ar
    16    32    12   1
    17    12    33   1
    18    16    13  ar
    19    13    24  ar
    20    14    15  ar
    21    23    14  ar
    22    15    16  ar
    23    17    18   1
    24    17    19   2
    25    18    20  ar
    26    18    31  ar
    27    20    21  ar
    28    22    23   1
    29    22    25   1
    30    23    24  ar
    31    24    26   1
    32    25    26  ar
    33    25    30  ar
    34    26    27  ar
    35    27    28  ar
    36    28    29  ar
    37    29    30  ar
    38    31    32  ar
    39    31    34   1
    40    33    34   2
    41     1    35   1
    42     3    36   1
    43     4    37   1
    44     5    38   1
    45     8    39   1
    46    12    40   1
    47    14    41   1
    48    15    42   1
    49    16    43   1
    50    20    44   1
    51    21    45   1
    52    22    46   1
    53    27    47   1
    54    28    48   1
    55    29    49   1
    56    30    50   1
    57    33    51   1
    58    34    52   1
@<TRIPOS>SUBSTRUCTURE
     1  YKI      1

