@<TRIPOS>MOLECULE
2yki_ligand_024
    52    58
SMALL
GAST_HUCK
****
This file was generated by PARSER (from files_GN.cpp)

@<TRIPOS>ATOM
      1 C1          4.4820   16.2984   26.4248 C.ar        1 YKI      -0.0069
      2 N1          5.8293   16.3425   26.6311 N.ar        1 YKI      -0.3145
      3 C2          6.7036   15.4883   26.0319 C.ar        1 YKI       0.0318
      4 N2          6.7471   13.5205   24.4620 N.pl3       1 YKI      -0.2421
      5 C3          3.9282   15.3235   25.5693 C.ar        1 YKI      -0.0358
      6 N3          4.5817   13.4276   24.0832 N.2         1 YKI      -0.2951
      7 C4          5.7711   12.8422   23.8314 C.2         1 YKI       0.1441
      8 N4          4.4780    7.4301   21.8159 N.am        1 YKI      -0.2584
      9 C5          4.8145   14.4419   24.9326 C.ar        1 YKI       0.0509
     10 N5          1.9643    4.7385   18.4259 N.ar        1 YKI      -0.2805
     11 C6          6.1849   14.5118   25.1631 C.ar        1 YKI       0.1092
     12 N6          2.4353    6.8148   17.2371 N.pl3       1 YKI      -0.2631
     13 C7          6.0007   11.7231   23.0081 C.ar        1 YKI       0.0361
     14 C8          6.6757    9.5512   21.3114 C.ar        1 YKI      -0.0512
     15 C9          7.2312   10.8181   21.0776 C.ar        1 YKI      -0.0623
     16 C10         6.9220   11.8858   21.9409 C.ar        1 YKI      -0.0499
     17 C11         4.6244    6.1961   21.3486 C.2         1 YKI       0.2116
     18 C12         3.7672    5.7133   20.3641 C.ar        1 YKI       0.0544
     19 O13         5.4355    5.4277   21.8588 O.2         1 YKI      -0.3825
     20 C14         3.1169    4.4578   20.5175 C.ar        1 YKI      -0.0315
     21 C15         2.2171    3.9946   19.5330 C.ar        1 YKI       0.0006
     22 C16         5.2534    8.0714   22.8396 C.3         1 YKI       0.1112
     23 C17         5.8047    9.3647   22.3986 C.ar        1 YKI       0.0062
     24 C18         5.4338   10.4366   23.2341 C.ar        1 YKI       0.0013
     25 C19         4.4332    8.5220   23.9763 C.ar        1 YKI       0.0020
     26 C20         4.5634    9.9027   24.2062 C.ar        1 YKI      -0.0129
     27 C21         3.8767   10.4829   25.2964 C.ar        1 YKI      -0.0610
     28 C22         3.0570    9.6859   26.1177 C.ar        1 YKI      -0.0680
     29 C23         2.9408    8.3026   25.8833 C.ar        1 YKI      -0.0680
     30 C24         3.6330    7.7104   24.8088 C.ar        1 YKI      -0.0553
     31 C25         3.4693    6.4433   19.1861 C.ar        1 YKI       0.0172
     32 C26         2.5638    5.9416   18.2474 C.ar        1 YKI       0.1409
     33 C27         3.2220    7.8748   17.4767 C.2         1 YKI       0.0293
     34 C28         3.9026    7.6659   18.6715 C.2         1 YKI      -0.0523
     35 H1          3.8798   16.9665   26.9021 H           1 YKI       0.0705
     36 H2          7.7023   15.5379   26.2415 H           1 YKI       0.0763
     37 H3          7.6891   13.2840   24.4668 H           1 YKI       0.2328
     38 H4          2.9206   15.2342   25.4405 H           1 YKI       0.0643
     39 H5          3.7390    7.9368   21.4547 H           1 YKI       0.1910
     40 H6          1.8860    6.6973   16.4455 H           1 YKI       0.2313
     41 H7          6.9217    8.7684   20.7084 H           1 YKI       0.0605
     42 H8          7.8800   10.9571   20.2967 H           1 YKI       0.0605
     43 H9          7.3760   12.7875   21.7666 H           1 YKI       0.0619
     44 H10         3.2683    3.8871   21.3553 H           1 YKI       0.0656
     45 H11         1.7538    3.0915   19.6475 H           1 YKI       0.0758
     46 H12         6.0720    7.4410   23.2047 H           1 YKI       0.0919
     47 H13         3.9672   11.4668   25.5175 H           1 YKI       0.0603
     48 H14         2.5615   10.1076   26.9072 H           1 YKI       0.0563
     49 H15         2.3679    7.7264   26.5064 H           1 YKI       0.0597
     50 H16         3.5606    6.7013   24.6487 H           1 YKI       0.0566
     51 H17         3.3153    8.6948   16.8756 H           1 YKI       0.0983
     52 H18         4.5875    8.2992   19.0808 H           1 YKI       0.0310
@<TRIPOS>BOND
     1     1     2  ar
     2     5     1  ar
     3     3     2  ar
     4    11     3  ar
     5     7     4   1
     6     4    11   1
     7     9     5  ar
     8     7     6   2
     9     6     9   1
    10    13     7   1
    11     8    17  am
    12    22     8   1
    13     9    11  ar
    14    21    10  ar
    15    10    32  ar
    16    32    12   1
    17    12    33   1
    18    16    13  ar
    19    13    24  ar
    20    14    15  ar
    21    23    14  ar
    22    15    16  ar
    23    17    18   1
    24    17    19   2
    25    18    20  ar
    26    18    31  ar
    27    20    21  ar
    28    22    23   1
    29    22    25   1
    30    23    24  ar
    31    24    26   1
    32    25    26  ar
    33    25    30  ar
    34    26    27  ar
    35    27    28  ar
    36    28    29  ar
    37    29    30  ar
    38    31    32  ar
    39    31    34   1
    40    33    34   2
    41     1    35   1
    42     3    36   1
    43     4    37   1
    44     5    38   1
    45     8    39   1
    46    12    40   1
    47    14    41   1
    48    15    42   1
    49    16    43   1
    50    20    44   1
    51    21    45   1
    52    22    46   1
    53    27    47   1
    54    28    48   1
    55    29    49   1
    56    30    50   1
    57    33    51   1
    58    34    52   1
@<TRIPOS>SUBSTRUCTURE
     1  YKI      1

