@<TRIPOS>MOLECULE
2yki_ligand_000
    52    58
SMALL
GAST_HUCK
****
This file was generated by PARSER (from files_GN.cpp)

@<TRIPOS>ATOM
      1 C1         12.6715   15.2183   26.2274 C.ar        1 YKI      -0.0069
      2 N1         12.4598   15.4054   27.5574 N.ar        1 YKI      -0.3145
      3 C2         11.2181   15.3797   28.1263 C.ar        1 YKI       0.0318
      4 N2          8.8090   15.0367   27.5386 N.pl3       1 YKI      -0.2421
      5 C3         11.5786   14.9856   25.3589 C.ar        1 YKI      -0.0358
      6 N3          9.0918   14.7360   25.3756 N.2         1 YKI      -0.2951
      7 C4          8.1785   14.7587   26.3699 C.2         1 YKI       0.1441
      8 N4          3.5192   11.4810   24.9479 N.am        1 YKI      -0.2584
      9 C5         10.2938   14.9542   25.9243 C.ar        1 YKI       0.0509
     10 N5          0.5676    8.0160   27.1486 N.ar        1 YKI      -0.2805
     11 C6         10.1143   15.1456   27.2940 C.ar        1 YKI       0.1092
     12 N6         -0.0533    7.4349   24.8666 N.pl3       1 YKI      -0.2631
     13 C7          6.7981   14.5557   26.2210 C.ar        1 YKI       0.0361
     14 C8          3.9896   14.4120   25.7369 C.ar        1 YKI      -0.0512
     15 C9          4.5169   15.4328   26.5404 C.ar        1 YKI      -0.0623
     16 C10         5.9053   15.5015   26.7761 C.ar        1 YKI      -0.0499
     17 C11         3.6319   10.2139   25.3651 C.2         1 YKI       0.2116
     18 C12         2.5857    9.5630   25.9444 C.ar        1 YKI       0.0544
     19 O13         4.6649    9.5545   25.2104 O.2         1 YKI      -0.3825
     20 C14         2.4874    9.4595   27.3548 C.ar        1 YKI      -0.0315
     21 C15         1.4386    8.7007   27.9316 C.ar        1 YKI       0.0006
     22 C16         4.4784   12.3311   24.3027 C.3         1 YKI       0.1112
     23 C17         4.8614   13.4421   25.1951 C.ar        1 YKI       0.0062
     24 C18         6.2433   13.4918   25.4430 C.ar        1 YKI       0.0013
     25 C19         5.8229   11.7968   23.9964 C.ar        1 YKI       0.0020
     26 C20         6.8197   12.4047   24.7717 C.ar        1 YKI      -0.0129
     27 C21         8.1122   11.8388   24.8027 C.ar        1 YKI      -0.0610
     28 C22         8.4236   10.7592   23.9470 C.ar        1 YKI      -0.0680
     29 C23         7.4443   10.2358   23.0784 C.ar        1 YKI      -0.0680
     30 C24         6.1335   10.7525   23.0982 C.ar        1 YKI      -0.0553
     31 C25         1.6540    8.8424   25.1674 C.ar        1 YKI       0.0172
     32 C26         0.6665    8.0651   25.7968 C.ar        1 YKI       0.1409
     33 C27         0.4176    7.7681   23.6491 C.2         1 YKI       0.0293
     34 C28         1.4710    8.6599   23.8022 C.2         1 YKI      -0.0523
     35 H1         13.6244   15.2418   25.8564 H           1 YKI       0.0705
     36 H2         11.1079   15.5185   29.1292 H           1 YKI       0.0763
     37 H3          8.3940   15.1073   28.4072 H           1 YKI       0.2328
     38 H4         11.7232   14.8362   24.3595 H           1 YKI       0.0643
     39 H5          2.6648   11.8977   25.1490 H           1 YKI       0.1910
     40 H6         -0.7871    6.8202   25.0413 H           1 YKI       0.2313
     41 H7          2.9844   14.3729   25.5461 H           1 YKI       0.0605
     42 H8          3.8946   16.1421   26.9411 H           1 YKI       0.0605
     43 H9          6.2645   16.2888   27.3295 H           1 YKI       0.0619
     44 H10         3.1703    9.9095   27.9654 H           1 YKI       0.0656
     45 H11         1.3493    8.6441   28.9471 H           1 YKI       0.0758
     46 H12         4.0462   12.7330   23.3800 H           1 YKI       0.0919
     47 H13         8.8229   12.1758   25.4484 H           1 YKI       0.0603
     48 H14         9.3621   10.3550   23.9619 H           1 YKI       0.0563
     49 H15         7.6820    9.4670   22.4475 H           1 YKI       0.0597
     50 H16         5.4004   10.3246   22.5292 H           1 YKI       0.0566
     51 H17         0.0608    7.4096   22.7648 H           1 YKI       0.0983
     52 H18         2.0294    9.0695   23.0481 H           1 YKI       0.0310
@<TRIPOS>BOND
     1     1     2  ar
     2     5     1  ar
     3     3     2  ar
     4    11     3  ar
     5     7     4   1
     6     4    11   1
     7     9     5  ar
     8     7     6   2
     9     6     9   1
    10    13     7   1
    11     8    17  am
    12    22     8   1
    13     9    11  ar
    14    21    10  ar
    15    10    32  ar
    16    32    12   1
    17    12    33   1
    18    16    13  ar
    19    13    24  ar
    20    14    15  ar
    21    23    14  ar
    22    15    16  ar
    23    17    18   1
    24    17    19   2
    25    18    20  ar
    26    18    31  ar
    27    20    21  ar
    28    22    23   1
    29    22    25   1
    30    23    24  ar
    31    24    26   1
    32    25    26  ar
    33    25    30  ar
    34    26    27  ar
    35    27    28  ar
    36    28    29  ar
    37    29    30  ar
    38    31    32  ar
    39    31    34   1
    40    33    34   2
    41     1    35   1
    42     3    36   1
    43     4    37   1
    44     5    38   1
    45     8    39   1
    46    12    40   1
    47    14    41   1
    48    15    42   1
    49    16    43   1
    50    20    44   1
    51    21    45   1
    52    22    46   1
    53    27    47   1
    54    28    48   1
    55    29    49   1
    56    30    50   1
    57    33    51   1
    58    34    52   1
@<TRIPOS>SUBSTRUCTURE
     1  YKI      1

