@<TRIPOS>MOLECULE
2yki_ligand_069
    52    58
SMALL
GAST_HUCK
****
This file was generated by PARSER (from files_GN.cpp)

@<TRIPOS>ATOM
      1 C1          8.7660   -0.8798   25.0389 C.ar        1 YKI      -0.0069
      2 N1         10.0665   -0.4835   24.9075 N.ar        1 YKI      -0.3145
      3 C2         10.6710    0.3771   25.7726 C.ar        1 YKI       0.0318
      4 N2         10.2007    1.7383   27.8340 N.pl3       1 YKI      -0.2421
      5 C3          7.9824   -0.3919   26.1051 C.ar        1 YKI      -0.0358
      6 N3          8.0884    1.1493   28.0682 N.2         1 YKI      -0.2951
      7 C4          9.0832    1.9151   28.5627 C.2         1 YKI       0.1441
      8 N4          6.0381    5.7960   31.7786 N.am        1 YKI      -0.2584
      9 C5          8.5855    0.5055   27.0004 C.ar        1 YKI       0.0509
     10 N5          2.3478    5.3534   35.0946 N.ar        1 YKI      -0.2805
     11 C6          9.9177    0.8842   26.8440 C.ar        1 YKI       0.1092
     12 N6          1.2813    6.8027   33.4407 N.pl3       1 YKI      -0.2631
     13 C7          8.9775    2.7580   29.6835 C.ar        1 YKI       0.0361
     14 C8          8.8500    4.3627   32.0325 C.ar        1 YKI      -0.0512
     15 C9          9.7091    3.2521   31.9801 C.ar        1 YKI      -0.0623
     16 C10         9.7783    2.4614   30.8145 C.ar        1 YKI      -0.0499
     17 C11         5.2900    4.7776   32.1803 C.2         1 YKI       0.2116
     18 C12         4.3315    4.9942   33.1441 C.ar        1 YKI       0.0544
     19 O13         5.4900    3.6301   31.8044 O.2         1 YKI      -0.3825
     20 C14         4.4042    4.3206   34.3876 C.ar        1 YKI      -0.0315
     21 C15         3.3985    4.5291   35.3570 C.ar        1 YKI       0.0006
     22 C16         7.0891    5.7742   30.8032 C.3         1 YKI       0.1112
     23 C17         8.0543    4.6622   30.9109 C.ar        1 YKI       0.0062
     24 C18         8.0995    3.8734   29.7474 C.ar        1 YKI       0.0013
     25 C19         6.6059    5.5648   29.4308 C.ar        1 YKI       0.0020
     26 C20         7.2169    4.4582   28.8218 C.ar        1 YKI      -0.0129
     27 C21         6.9303    4.1688   27.4713 C.ar        1 YKI      -0.0610
     28 C22         6.0237    4.9836   26.7606 C.ar        1 YKI      -0.0680
     29 C23         5.4234    6.0993   27.3826 C.ar        1 YKI      -0.0680
     30 C24         5.7219    6.4026   28.7231 C.ar        1 YKI      -0.0553
     31 C25         3.2362    5.8590   32.9249 C.ar        1 YKI       0.0172
     32 C26         2.2533    6.0029   33.9090 C.ar        1 YKI       0.1409
     33 C27         1.6005    7.1973   32.1930 C.2         1 YKI       0.0293
     34 C28         2.8182    6.6286   31.8426 C.2         1 YKI      -0.0523
     35 H1          8.3651   -1.5259   24.3582 H           1 YKI       0.0705
     36 H2         11.6444    0.6555   25.6297 H           1 YKI       0.0763
     37 H3         11.0539    2.1774   27.9774 H           1 YKI       0.2328
     38 H4          7.0047   -0.6683   26.2157 H           1 YKI       0.0643
     39 H5          5.8611    6.6549   32.1985 H           1 YKI       0.1910
     40 H6          0.4657    7.0289   33.9084 H           1 YKI       0.2313
     41 H7          8.8014    4.9384   32.8749 H           1 YKI       0.0605
     42 H8         10.2811    3.0115   32.7936 H           1 YKI       0.0605
     43 H9         10.4144    1.6572   30.8081 H           1 YKI       0.0619
     44 H10         5.1800    3.6859   34.5975 H           1 YKI       0.0656
     45 H11         3.4530    4.0456   36.2542 H           1 YKI       0.0758
     46 H12         7.6197    6.7280   30.8421 H           1 YKI       0.0919
     47 H13         7.3954    3.4129   26.9796 H           1 YKI       0.0603
     48 H14         5.8154    4.7797   25.7770 H           1 YKI       0.0563
     49 H15         4.7945    6.7040   26.8511 H           1 YKI       0.0597
     50 H16         5.3260    7.2313   29.1638 H           1 YKI       0.0566
     51 H17         1.0229    7.7894   31.5925 H           1 YKI       0.0983
     52 H18         3.2871    6.7182   30.9372 H           1 YKI       0.0310
@<TRIPOS>BOND
     1     1     2  ar
     2     5     1  ar
     3     3     2  ar
     4    11     3  ar
     5     7     4   1
     6     4    11   1
     7     9     5  ar
     8     7     6   2
     9     6     9   1
    10    13     7   1
    11     8    17  am
    12    22     8   1
    13     9    11  ar
    14    21    10  ar
    15    10    32  ar
    16    32    12   1
    17    12    33   1
    18    16    13  ar
    19    13    24  ar
    20    14    15  ar
    21    23    14  ar
    22    15    16  ar
    23    17    18   1
    24    17    19   2
    25    18    20  ar
    26    18    31  ar
    27    20    21  ar
    28    22    23   1
    29    22    25   1
    30    23    24  ar
    31    24    26   1
    32    25    26  ar
    33    25    30  ar
    34    26    27  ar
    35    27    28  ar
    36    28    29  ar
    37    29    30  ar
    38    31    32  ar
    39    31    34   1
    40    33    34   2
    41     1    35   1
    42     3    36   1
    43     4    37   1
    44     5    38   1
    45     8    39   1
    46    12    40   1
    47    14    41   1
    48    15    42   1
    49    16    43   1
    50    20    44   1
    51    21    45   1
    52    22    46   1
    53    27    47   1
    54    28    48   1
    55    29    49   1
    56    30    50   1
    57    33    51   1
    58    34    52   1
@<TRIPOS>SUBSTRUCTURE
     1  YKI      1

