@<TRIPOS>MOLECULE
2yki_ligand_058
    52    58
SMALL
GAST_HUCK
****
This file was generated by PARSER (from files_GN.cpp)

@<TRIPOS>ATOM
      1 C1         22.3224    6.5058   32.9442 C.ar        1 YKI      -0.0069
      2 N1         22.0390    5.9250   31.7423 N.ar        1 YKI      -0.3145
      3 C2         20.9738    6.2846   30.9736 C.ar        1 YKI       0.0318
      4 N2         19.0231    7.8684   30.9540 N.pl3       1 YKI      -0.2421
      5 C3         21.4933    7.5301   33.4509 C.ar        1 YKI      -0.0358
      6 N3         19.4356    8.8323   32.8985 N.2         1 YKI      -0.2951
      7 C4         18.6078    8.7875   31.8383 C.2         1 YKI       0.1441
      8 N4         15.8053   13.0560   29.2035 N.am        1 YKI      -0.2584
      9 C5         20.3885    7.9159   32.6727 C.ar        1 YKI       0.0509
     10 N5         12.9689   13.9699   25.1853 N.ar        1 YKI      -0.2805
     11 C6         20.1309    7.2999   31.4498 C.ar        1 YKI       0.1092
     12 N6         11.2211   15.1464   26.4248 N.pl3       1 YKI      -0.2631
     13 C7         17.4610    9.5811   31.7201 C.ar        1 YKI       0.0361
     14 C8         15.0910   11.1407   31.5884 C.ar        1 YKI      -0.0512
     15 C9         15.0677    9.8607   32.1690 C.ar        1 YKI      -0.0623
     16 C10        16.2423    9.0827   32.2315 C.ar        1 YKI      -0.0499
     17 C11        15.1002   14.1036   28.8048 C.2         1 YKI       0.2116
     18 C12        14.3992   14.0536   27.6040 C.ar        1 YKI       0.0544
     19 O13        15.0500   15.1336   29.4722 O.2         1 YKI      -0.3825
     20 C14        14.9376   13.4319   26.4492 C.ar        1 YKI      -0.0315
     21 C15        14.2029   13.4027   25.2427 C.ar        1 YKI       0.0006
     22 C16        16.5099   12.9429   30.4450 C.3         1 YKI       0.1112
     23 C17        16.3010   11.6281   31.0670 C.ar        1 YKI       0.0062
     24 C18        17.4850   10.8711   31.1425 C.ar        1 YKI       0.0013
     25 C19        17.9563   12.8897   30.2215 C.ar        1 YKI       0.0020
     26 C20        18.5158   11.6681   30.6258 C.ar        1 YKI      -0.0129
     27 C21        19.9056   11.4591   30.4866 C.ar        1 YKI      -0.0610
     28 C22        20.7154   12.4853   29.9609 C.ar        1 YKI      -0.0680
     29 C23        20.1453   13.7198   29.5817 C.ar        1 YKI      -0.0680
     30 C24        18.7582   13.9230   29.7044 C.ar        1 YKI      -0.0553
     31 C25        13.1063   14.6142   27.4898 C.ar        1 YKI       0.0172
     32 C26        12.4191   14.5606   26.2710 C.ar        1 YKI       0.1409
     33 C27        11.0925   15.5635   27.6951 C.2         1 YKI       0.0293
     34 C28        12.2553   15.2412   28.3894 C.2         1 YKI      -0.0523
     35 H1         23.1317    6.1905   33.4768 H           1 YKI       0.0705
     36 H2         20.7929    5.8289   30.0767 H           1 YKI       0.0763
     37 H3         18.5841    7.6382   30.1149 H           1 YKI       0.2328
     38 H4         21.6876    7.9775   34.3479 H           1 YKI       0.0643
     39 H5         15.8041   12.2687   28.6265 H           1 YKI       0.1910
     40 H6         10.5499   15.2367   25.7360 H           1 YKI       0.2313
     41 H7         14.2383   11.7042   31.5497 H           1 YKI       0.0605
     42 H8         14.2041    9.4907   32.5569 H           1 YKI       0.0605
     43 H9         16.1935    8.1450   32.6543 H           1 YKI       0.0619
     44 H10        15.8726   13.0265   26.4574 H           1 YKI       0.0656
     45 H11        14.6039   12.9656   24.4134 H           1 YKI       0.0758
     46 H12        16.2667   13.7407   31.1580 H           1 YKI       0.0919
     47 H13        20.3400   10.5752   30.7508 H           1 YKI       0.0603
     48 H14        21.7205   12.3416   29.8611 H           1 YKI       0.0563
     49 H15        20.7371   14.4634   29.1990 H           1 YKI       0.0597
     50 H16        18.3387   14.8106   29.4125 H           1 YKI       0.0566
     51 H17        10.2718   16.0162   28.1028 H           1 YKI       0.0983
     52 H18        12.4331   15.4213   29.3850 H           1 YKI       0.0310
@<TRIPOS>BOND
     1     1     2  ar
     2     5     1  ar
     3     3     2  ar
     4    11     3  ar
     5     7     4   1
     6     4    11   1
     7     9     5  ar
     8     7     6   2
     9     6     9   1
    10    13     7   1
    11     8    17  am
    12    22     8   1
    13     9    11  ar
    14    21    10  ar
    15    10    32  ar
    16    32    12   1
    17    12    33   1
    18    16    13  ar
    19    13    24  ar
    20    14    15  ar
    21    23    14  ar
    22    15    16  ar
    23    17    18   1
    24    17    19   2
    25    18    20  ar
    26    18    31  ar
    27    20    21  ar
    28    22    23   1
    29    22    25   1
    30    23    24  ar
    31    24    26   1
    32    25    26  ar
    33    25    30  ar
    34    26    27  ar
    35    27    28  ar
    36    28    29  ar
    37    29    30  ar
    38    31    32  ar
    39    31    34   1
    40    33    34   2
    41     1    35   1
    42     3    36   1
    43     4    37   1
    44     5    38   1
    45     8    39   1
    46    12    40   1
    47    14    41   1
    48    15    42   1
    49    16    43   1
    50    20    44   1
    51    21    45   1
    52    22    46   1
    53    27    47   1
    54    28    48   1
    55    29    49   1
    56    30    50   1
    57    33    51   1
    58    34    52   1
@<TRIPOS>SUBSTRUCTURE
     1  YKI      1

