@<TRIPOS>MOLECULE
2yki_ligand_068
    52    58
SMALL
GAST_HUCK
****
This file was generated by PARSER (from files_GN.cpp)

@<TRIPOS>ATOM
      1 C1         18.2395   12.3498   30.6820 C.ar        1 YKI      -0.0069
      2 N1         18.6901   13.6014   30.3832 N.ar        1 YKI      -0.3145
      3 C2         17.9089   14.5522   29.7992 C.ar        1 YKI       0.0318
      4 N2         15.5870   14.9132   28.9279 N.pl3       1 YKI      -0.2421
      5 C3         16.9087   11.9843   30.3851 C.ar        1 YKI      -0.0358
      6 N3         14.8096   12.8941   29.3735 N.2         1 YKI      -0.2951
      7 C4         14.5178   14.1021   28.8472 C.2         1 YKI       0.1441
      8 N4         10.3806   13.1955   24.7460 N.am        1 YKI      -0.2584
      9 C5         16.0879   12.9514   29.7808 C.ar        1 YKI       0.0509
     10 N5          6.1063   10.5204   24.1352 N.ar        1 YKI      -0.2805
     11 C6         16.5794   14.2216   29.4934 C.ar        1 YKI       0.1092
     12 N6          7.8123    9.1340   23.0631 N.pl3       1 YKI      -0.2631
     13 C7         13.3004   14.4744   28.2615 C.ar        1 YKI       0.0361
     14 C8         10.8880   15.4290   27.1019 C.ar        1 YKI      -0.0512
     15 C9         11.2087   15.7442   28.4316 C.ar        1 YKI      -0.0623
     16 C10        12.4062   15.2734   29.0081 C.ar        1 YKI      -0.0499
     17 C11         9.3558   12.8218   25.5175 C.2         1 YKI       0.2116
     18 C12         8.2895   12.0799   25.0183 C.ar        1 YKI       0.0544
     19 O13         9.2888   13.1405   26.6984 O.2         1 YKI      -0.3825
     20 C14         6.9508   12.4053   25.3714 C.ar        1 YKI      -0.0315
     21 C15         5.8765   11.6146   24.9070 C.ar        1 YKI       0.0006
     22 C16        11.5112   14.0620   25.0119 C.3         1 YKI       0.1112
     23 C17        11.7383   14.5693   26.3826 C.ar        1 YKI       0.0062
     24 C18        12.9467   14.1147   26.9339 C.ar        1 YKI       0.0013
     25 C19        12.7940   13.3666   24.7969 C.ar        1 YKI       0.0020
     26 C20        13.6132   13.3945   25.9345 C.ar        1 YKI      -0.0129
     27 C21        14.8946   12.7983   25.8991 C.ar        1 YKI      -0.0610
     28 C22        15.3410   12.1791   24.7188 C.ar        1 YKI      -0.0680
     29 C23        14.5264   12.1738   23.5719 C.ar        1 YKI      -0.0680
     30 C24        13.2564   12.7868   23.6000 C.ar        1 YKI      -0.0553
     31 C25         8.4668   10.9359   24.2089 C.ar        1 YKI       0.0172
     32 C26         7.3711   10.1790   23.7832 C.ar        1 YKI       0.1409
     33 C27         9.1562    9.1686   23.0217 C.2         1 YKI       0.0293
     34 C28         9.5937   10.2820   23.7282 C.2         1 YKI      -0.0523
     35 H1         18.8702   11.6800   31.1224 H           1 YKI       0.0705
     36 H2         18.2832   15.4794   29.5892 H           1 YKI       0.0763
     37 H3         15.6400   15.8288   28.6116 H           1 YKI       0.2328
     38 H4         16.5537   11.0504   30.5984 H           1 YKI       0.0643
     39 H5         10.3308   12.8760   23.8285 H           1 YKI       0.1910
     40 H6          7.2671    8.4520   22.6358 H           1 YKI       0.2313
     41 H7         10.0257   15.7805   26.6811 H           1 YKI       0.0605
     42 H8         10.5669   16.3148   28.9848 H           1 YKI       0.0605
     43 H9         12.6231   15.5376   29.9716 H           1 YKI       0.0619
     44 H10         6.7490   13.2165   25.9598 H           1 YKI       0.0656
     45 H11         4.9166   11.8629   25.1593 H           1 YKI       0.0758
     46 H12        11.4629   14.9088   24.3260 H           1 YKI       0.0919
     47 H13        15.5114   12.8228   26.7073 H           1 YKI       0.0603
     48 H14        16.2644   11.7445   24.6896 H           1 YKI       0.0563
     49 H15        14.8562   11.7267   22.7151 H           1 YKI       0.0597
     50 H16        12.6732   12.8072   22.7606 H           1 YKI       0.0566
     51 H17         9.7541    8.4777   22.5597 H           1 YKI       0.0983
     52 H18        10.5602   10.5552   23.8935 H           1 YKI       0.0310
@<TRIPOS>BOND
     1     1     2  ar
     2     5     1  ar
     3     3     2  ar
     4    11     3  ar
     5     7     4   1
     6     4    11   1
     7     9     5  ar
     8     7     6   2
     9     6     9   1
    10    13     7   1
    11     8    17  am
    12    22     8   1
    13     9    11  ar
    14    21    10  ar
    15    10    32  ar
    16    32    12   1
    17    12    33   1
    18    16    13  ar
    19    13    24  ar
    20    14    15  ar
    21    23    14  ar
    22    15    16  ar
    23    17    18   1
    24    17    19   2
    25    18    20  ar
    26    18    31  ar
    27    20    21  ar
    28    22    23   1
    29    22    25   1
    30    23    24  ar
    31    24    26   1
    32    25    26  ar
    33    25    30  ar
    34    26    27  ar
    35    27    28  ar
    36    28    29  ar
    37    29    30  ar
    38    31    32  ar
    39    31    34   1
    40    33    34   2
    41     1    35   1
    42     3    36   1
    43     4    37   1
    44     5    38   1
    45     8    39   1
    46    12    40   1
    47    14    41   1
    48    15    42   1
    49    16    43   1
    50    20    44   1
    51    21    45   1
    52    22    46   1
    53    27    47   1
    54    28    48   1
    55    29    49   1
    56    30    50   1
    57    33    51   1
    58    34    52   1
@<TRIPOS>SUBSTRUCTURE
     1  YKI      1

