@<TRIPOS>MOLECULE
2yki_ligand_021
    52    58
SMALL
GAST_HUCK
****
This file was generated by PARSER (from files_GN.cpp)

@<TRIPOS>ATOM
      1 C1          0.1366    3.5212   26.7905 C.ar        1 YKI      -0.0069
      2 N1          0.0568    3.2348   25.4614 N.ar        1 YKI      -0.3145
      3 C2          0.7955    3.8812   24.5152 C.ar        1 YKI       0.0318
      4 N2          2.5077    5.6961   24.2704 N.pl3       1 YKI      -0.2421
      5 C3          1.0129    4.5241   27.2490 C.ar        1 YKI      -0.0358
      6 N3          2.6719    6.2063   26.4134 N.2         1 YKI      -0.2951
      7 C4          3.1086    6.4952   25.1701 C.2         1 YKI       0.1441
      8 N4          4.5552   12.0624   24.6946 N.am        1 YKI      -0.2584
      9 C5          1.7782    5.2128   26.2893 C.ar        1 YKI       0.0509
     10 N5          5.7798   16.0837   27.4907 N.ar        1 YKI      -0.2805
     11 C6          1.6725    4.8902   24.9381 C.ar        1 YKI       0.1092
     12 N6          7.7875   14.7128   27.5088 N.pl3       1 YKI      -0.2631
     13 C7          4.0525    7.4803   24.8534 C.ar        1 YKI       0.0361
     14 C8          6.0397    9.3985   24.1990 C.ar        1 YKI      -0.0512
     15 C9          6.4103    8.0975   24.5759 C.ar        1 YKI      -0.0623
     16 C10         5.4276    7.1477   24.9202 C.ar        1 YKI      -0.0499
     17 C11         4.3593   13.3744   24.5960 C.2         1 YKI       0.2116
     18 C12         4.8369   14.2641   25.5510 C.ar        1 YKI       0.0544
     19 O13         3.7327   13.8330   23.6479 O.2         1 YKI      -0.3825
     20 C14         4.0554   15.3741   25.9730 C.ar        1 YKI      -0.0315
     21 C15         4.5482   16.2701   26.9486 C.ar        1 YKI       0.0006
     22 C16         4.1168   11.0524   23.7754 C.3         1 YKI       0.1112
     23 C17         4.6746    9.7373   24.1477 C.ar        1 YKI       0.0062
     24 C18         3.6811    8.7901   24.4522 C.ar        1 YKI       0.0013
     25 C19         2.6761   10.7384   23.8670 C.ar        1 YKI       0.0020
     26 C20         2.4439    9.4139   24.2630 C.ar        1 YKI      -0.0129
     27 C21         1.1258    8.9264   24.3768 C.ar        1 YKI      -0.0610
     28 C22         0.0456    9.7774   24.0731 C.ar        1 YKI      -0.0680
     29 C23         0.2789   11.1099   23.6788 C.ar        1 YKI      -0.0680
     30 C24         1.5961   11.5930   23.5702 C.ar        1 YKI      -0.0553
     31 C25         6.1185   14.1257   26.1411 C.ar        1 YKI       0.0172
     32 C26         6.5545   15.0435   27.1021 C.ar        1 YKI       0.1409
     33 C27         8.1944   13.6292   26.8290 C.2         1 YKI       0.0293
     34 C28         7.1821   13.2412   25.9590 C.2         1 YKI      -0.0523
     35 H1         -0.4474    3.0089   27.4495 H           1 YKI       0.0705
     36 H2          0.7069    3.6388   23.5230 H           1 YKI       0.0763
     37 H3          2.6492    5.7054   23.3107 H           1 YKI       0.2328
     38 H4          1.0942    4.7467   28.2407 H           1 YKI       0.0643
     39 H5          5.0714   11.7617   25.4581 H           1 YKI       0.1910
     40 H6          8.3032   15.1725   28.1867 H           1 YKI       0.2313
     41 H7          6.7557   10.0864   23.9573 H           1 YKI       0.0605
     42 H8          7.3999    7.8419   24.6163 H           1 YKI       0.0605
     43 H9          5.7231    6.2062   25.1964 H           1 YKI       0.0619
     44 H10         3.1182   15.5341   25.5935 H           1 YKI       0.0656
     45 H11         3.9861   17.0629   27.2548 H           1 YKI       0.0758
     46 H12         4.3957   11.2931   22.7441 H           1 YKI       0.0919
     47 H13         0.9316    7.9718   24.6644 H           1 YKI       0.0603
     48 H14        -0.9143    9.4236   24.1317 H           1 YKI       0.0563
     49 H15        -0.5135   11.7241   23.4668 H           1 YKI       0.0597
     50 H16         1.7529   12.5524   23.2592 H           1 YKI       0.0566
     51 H17         9.0990   13.1688   26.9391 H           1 YKI       0.0983
     52 H18         7.2282   12.4592   25.3051 H           1 YKI       0.0310
@<TRIPOS>BOND
     1     1     2  ar
     2     5     1  ar
     3     3     2  ar
     4    11     3  ar
     5     7     4   1
     6     4    11   1
     7     9     5  ar
     8     7     6   2
     9     6     9   1
    10    13     7   1
    11     8    17  am
    12    22     8   1
    13     9    11  ar
    14    21    10  ar
    15    10    32  ar
    16    32    12   1
    17    12    33   1
    18    16    13  ar
    19    13    24  ar
    20    14    15  ar
    21    23    14  ar
    22    15    16  ar
    23    17    18   1
    24    17    19   2
    25    18    20  ar
    26    18    31  ar
    27    20    21  ar
    28    22    23   1
    29    22    25   1
    30    23    24  ar
    31    24    26   1
    32    25    26  ar
    33    25    30  ar
    34    26    27  ar
    35    27    28  ar
    36    28    29  ar
    37    29    30  ar
    38    31    32  ar
    39    31    34   1
    40    33    34   2
    41     1    35   1
    42     3    36   1
    43     4    37   1
    44     5    38   1
    45     8    39   1
    46    12    40   1
    47    14    41   1
    48    15    42   1
    49    16    43   1
    50    20    44   1
    51    21    45   1
    52    22    46   1
    53    27    47   1
    54    28    48   1
    55    29    49   1
    56    30    50   1
    57    33    51   1
    58    34    52   1
@<TRIPOS>SUBSTRUCTURE
     1  YKI      1

