@<TRIPOS>MOLECULE
2yki_ligand_080
    52    58
SMALL
GAST_HUCK
****
This file was generated by PARSER (from files_GN.cpp)

@<TRIPOS>ATOM
      1 C1          2.1935   -0.9798   20.4516 C.ar        1 YKI      -0.0069
      2 N1          3.3738   -1.2490   21.0806 N.ar        1 YKI      -0.3145
      3 C2          3.7864   -0.5870   22.1972 C.ar        1 YKI       0.0318
      4 N2          3.0718    1.2417   23.7690 N.pl3       1 YKI      -0.2421
      5 C3          1.3356    0.0221   20.9512 C.ar        1 YKI      -0.0358
      6 N3          1.1561    1.7176   22.7808 N.2         1 YKI      -0.2951
      7 C4          1.9835    2.0388   23.7994 C.2         1 YKI       0.1441
      8 N4          1.2211    7.6735   25.3322 N.am        1 YKI      -0.2584
      9 C5          1.7457    0.7209   22.1000 C.ar        1 YKI       0.0509
     10 N5         -2.1067   11.1409   26.6998 N.ar        1 YKI      -0.2805
     11 C6          2.9567    0.4212   22.7195 C.ar        1 YKI       0.1092
     12 N6         -2.3008   11.2705   24.2824 N.pl3       1 YKI      -0.2631
     13 C7          1.7469    3.0321   24.7668 C.ar        1 YKI       0.0361
     14 C8          1.4220    4.9354   26.8598 C.ar        1 YKI      -0.0512
     15 C9          1.1549    3.5706   27.0914 C.ar        1 YKI      -0.0623
     16 C10         1.3246    2.6302   26.0557 C.ar        1 YKI      -0.0499
     17 C11         1.3114    8.8167   26.0052 C.2         1 YKI       0.2116
     18 C12         0.1868    9.5929   26.2018 C.ar        1 YKI       0.0544
     19 O13         2.3480    9.1387   26.5878 O.2         1 YKI      -0.3825
     20 C14        -0.2098    9.9232   27.5259 C.ar        1 YKI      -0.0315
     21 C15        -1.3705   10.6906   27.7487 C.ar        1 YKI       0.0006
     22 C16         2.2634    6.6931   25.1857 C.3         1 YKI       0.1112
     23 C17         1.8390    5.3386   25.5779 C.ar        1 YKI       0.0062
     24 C18         1.9936    4.4140   24.5344 C.ar        1 YKI       0.0013
     25 C19         2.6006    6.4701   23.7778 C.ar        1 YKI       0.0020
     26 C20         2.4532    5.1240   23.4192 C.ar        1 YKI      -0.0129
     27 C21         2.7834    4.7127   22.1135 C.ar        1 YKI      -0.0610
     28 C22         3.2526    5.6609   21.1852 C.ar        1 YKI      -0.0680
     29 C23         3.3886    7.0163   21.5529 C.ar        1 YKI      -0.0680
     30 C24         3.0700    7.4263   22.8597 C.ar        1 YKI      -0.0553
     31 C25        -0.6085   10.0932   25.1422 C.ar        1 YKI       0.0172
     32 C26        -1.7345   10.8690   25.4258 C.ar        1 YKI       0.1409
     33 C27        -1.5832   10.7901   23.2534 C.2         1 YKI       0.0293
     34 C28        -0.5231   10.0371   23.7518 C.2         1 YKI      -0.0523
     35 H1          1.9398   -1.5058   19.6138 H           1 YKI       0.0705
     36 H2          4.6753   -0.8201   22.6395 H           1 YKI       0.0763
     37 H3          3.8142    1.2673   24.3943 H           1 YKI       0.2328
     38 H4          0.4452    0.2336   20.4947 H           1 YKI       0.0643
     39 H5          0.3577    7.4594   24.9367 H           1 YKI       0.1910
     40 H6         -3.0868   11.8376   24.2249 H           1 YKI       0.2313
     41 H7          1.3394    5.6175   27.6158 H           1 YKI       0.0605
     42 H8          0.8600    3.2524   28.0179 H           1 YKI       0.0605
     43 H9          1.1368    1.6403   26.2519 H           1 YKI       0.0619
     44 H10         0.3294    9.5872   28.3293 H           1 YKI       0.0656
     45 H11        -1.6676   10.8988   28.7007 H           1 YKI       0.0758
     46 H12         3.1763    6.9393   25.7317 H           1 YKI       0.0919
     47 H13         2.6992    3.7403   21.8276 H           1 YKI       0.0603
     48 H14         3.4936    5.3668   20.2360 H           1 YKI       0.0563
     49 H15         3.7319    7.6973   20.8753 H           1 YKI       0.0597
     50 H16         3.1815    8.4047   23.1381 H           1 YKI       0.0566
     51 H17        -1.7848   10.9759   22.2675 H           1 YKI       0.0983
     52 H18         0.2000    9.5680   23.2017 H           1 YKI       0.0310
@<TRIPOS>BOND
     1     1     2  ar
     2     5     1  ar
     3     3     2  ar
     4    11     3  ar
     5     7     4   1
     6     4    11   1
     7     9     5  ar
     8     7     6   2
     9     6     9   1
    10    13     7   1
    11     8    17  am
    12    22     8   1
    13     9    11  ar
    14    21    10  ar
    15    10    32  ar
    16    32    12   1
    17    12    33   1
    18    16    13  ar
    19    13    24  ar
    20    14    15  ar
    21    23    14  ar
    22    15    16  ar
    23    17    18   1
    24    17    19   2
    25    18    20  ar
    26    18    31  ar
    27    20    21  ar
    28    22    23   1
    29    22    25   1
    30    23    24  ar
    31    24    26   1
    32    25    26  ar
    33    25    30  ar
    34    26    27  ar
    35    27    28  ar
    36    28    29  ar
    37    29    30  ar
    38    31    32  ar
    39    31    34   1
    40    33    34   2
    41     1    35   1
    42     3    36   1
    43     4    37   1
    44     5    38   1
    45     8    39   1
    46    12    40   1
    47    14    41   1
    48    15    42   1
    49    16    43   1
    50    20    44   1
    51    21    45   1
    52    22    46   1
    53    27    47   1
    54    28    48   1
    55    29    49   1
    56    30    50   1
    57    33    51   1
    58    34    52   1
@<TRIPOS>SUBSTRUCTURE
     1  YKI      1

