@<TRIPOS>MOLECULE
2yki_ligand_029
    52    58
SMALL
GAST_HUCK
****
This file was generated by PARSER (from files_GN.cpp)

@<TRIPOS>ATOM
      1 C1         25.1976   15.0679   30.5310 C.ar        1 YKI      -0.0069
      2 N1         25.1873   14.6637   29.2285 N.ar        1 YKI      -0.3145
      3 C2         24.1297   14.0216   28.6582 C.ar        1 YKI       0.0318
      4 N2         21.8243   13.1927   29.1934 N.pl3       1 YKI      -0.2421
      5 C3         24.0786   14.8293   31.3571 C.ar        1 YKI      -0.0358
      6 N3         21.7792   13.8346   31.3015 N.2         1 YKI      -0.2951
      7 C4         21.0734   13.2517   30.3079 C.2         1 YKI       0.1441
      8 N4         15.2530   14.1241   30.2667 N.am        1 YKI      -0.2584
      9 C5         22.9737   14.1715   30.7867 C.ar        1 YKI       0.0509
     10 N5         11.8754   14.8284   26.6349 N.ar        1 YKI      -0.2805
     11 C6         23.0013   13.7693   29.4530 C.ar        1 YKI       0.1092
     12 N6         13.1870   13.7036   24.9090 N.pl3       1 YKI      -0.2631
     13 C7         19.7622   12.7504   30.4039 C.ar        1 YKI       0.0361
     14 C8         17.1598   11.6101   30.5315 C.ar        1 YKI      -0.0512
     15 C9         18.2637   10.8140   30.1804 C.ar        1 YKI      -0.0623
     16 C10        19.5499   11.3830   30.1004 C.ar        1 YKI      -0.0499
     17 C11        15.3486   14.4809   28.9892 C.2         1 YKI       0.2116
     18 C12        14.2044   14.6092   28.2057 C.ar        1 YKI       0.0544
     19 O13        16.4472   14.6671   28.4753 O.2         1 YKI      -0.3825
     20 C14        13.0151   15.1915   28.7229 C.ar        1 YKI      -0.0315
     21 C15        11.8651   15.2977   27.9100 C.ar        1 YKI       0.0006
     22 C16        16.3182   13.9388   31.2125 C.3         1 YKI       0.1112
     23 C17        17.3602   12.9716   30.8195 C.ar        1 YKI       0.0062
     24 C18        18.6439   13.5455   30.7760 C.ar        1 YKI       0.0013
     25 C19        17.1436   15.1380   31.4098 C.ar        1 YKI       0.0020
     26 C20        18.4971   14.8987   31.1250 C.ar        1 YKI      -0.0129
     27 C21        19.4198   15.9611   31.2324 C.ar        1 YKI      -0.0610
     28 C22        18.9841   17.2306   31.6604 C.ar        1 YKI      -0.0680
     29 C23        17.6253   17.4538   31.9534 C.ar        1 YKI      -0.0680
     30 C24        16.6933   16.4086   31.8175 C.ar        1 YKI      -0.0553
     31 C25        14.1626   14.1457   26.8688 C.ar        1 YKI       0.0172
     32 C26        12.9904   14.2597   26.1143 C.ar        1 YKI       0.1409
     33 C27        14.4357   13.2069   24.8553 C.2         1 YKI       0.0293
     34 C28        15.0839   13.4941   26.0506 C.2         1 YKI      -0.0523
     35 H1         26.0183   15.5515   30.9000 H           1 YKI       0.0705
     36 H2         24.1556   13.7451   27.6756 H           1 YKI       0.0763
     37 H3         21.5483   12.8208   28.3424 H           1 YKI       0.2328
     38 H4         24.0663   15.1349   32.3326 H           1 YKI       0.0643
     39 H5         14.3549   13.9635   30.6126 H           1 YKI       0.1910
     40 H6         12.5261   13.6407   24.2023 H           1 YKI       0.2313
     41 H7         16.2226   11.2034   30.5696 H           1 YKI       0.0605
     42 H8         18.1291    9.8231   29.9632 H           1 YKI       0.0605
     43 H9         20.3320   10.7798   29.8253 H           1 YKI       0.0619
     44 H10        12.9794   15.5497   29.6793 H           1 YKI       0.0656
     45 H11        11.0133   15.7203   28.2803 H           1 YKI       0.0758
     46 H12        15.8882   13.6385   32.1713 H           1 YKI       0.0919
     47 H13        20.4004   15.8372   31.0042 H           1 YKI       0.0603
     48 H14        19.6558   17.9953   31.7585 H           1 YKI       0.0563
     49 H15        17.3109   18.3772   32.2551 H           1 YKI       0.0597
     50 H16        15.7028   16.5720   32.0120 H           1 YKI       0.0566
     51 H17        14.8416   12.7035   24.0654 H           1 YKI       0.0983
     52 H18        16.0482   13.2465   26.2810 H           1 YKI       0.0310
@<TRIPOS>BOND
     1     1     2  ar
     2     5     1  ar
     3     3     2  ar
     4    11     3  ar
     5     7     4   1
     6     4    11   1
     7     9     5  ar
     8     7     6   2
     9     6     9   1
    10    13     7   1
    11     8    17  am
    12    22     8   1
    13     9    11  ar
    14    21    10  ar
    15    10    32  ar
    16    32    12   1
    17    12    33   1
    18    16    13  ar
    19    13    24  ar
    20    14    15  ar
    21    23    14  ar
    22    15    16  ar
    23    17    18   1
    24    17    19   2
    25    18    20  ar
    26    18    31  ar
    27    20    21  ar
    28    22    23   1
    29    22    25   1
    30    23    24  ar
    31    24    26   1
    32    25    26  ar
    33    25    30  ar
    34    26    27  ar
    35    27    28  ar
    36    28    29  ar
    37    29    30  ar
    38    31    32  ar
    39    31    34   1
    40    33    34   2
    41     1    35   1
    42     3    36   1
    43     4    37   1
    44     5    38   1
    45     8    39   1
    46    12    40   1
    47    14    41   1
    48    15    42   1
    49    16    43   1
    50    20    44   1
    51    21    45   1
    52    22    46   1
    53    27    47   1
    54    28    48   1
    55    29    49   1
    56    30    50   1
    57    33    51   1
    58    34    52   1
@<TRIPOS>SUBSTRUCTURE
     1  YKI      1

