@<TRIPOS>MOLECULE
2yki_ligand_006
    52    58
SMALL
GAST_HUCK
****
This file was generated by PARSER (from files_GN.cpp)

@<TRIPOS>ATOM
      1 C1          0.2906    4.5497   35.8906 C.ar        1 YKI      -0.0069
      2 N1          1.2469    5.1858   36.6269 N.ar        1 YKI      -0.3145
      3 C2          2.2008    5.9881   36.0753 C.ar        1 YKI       0.0318
      4 N2          2.9968    6.8315   33.8393 N.pl3       1 YKI      -0.2421
      5 C3          0.2565    4.7051   34.4896 C.ar        1 YKI      -0.0358
      6 N3          1.4681    5.8205   32.6196 N.2         1 YKI      -0.2951
      7 C4          2.5622    6.6065   32.5856 C.2         1 YKI       0.1441
      8 N4          6.5838    6.5416   28.3114 N.am        1 YKI      -0.2584
      9 C5          1.2361    5.5246   33.9052 C.ar        1 YKI       0.0509
     10 N5          7.1142    3.8600   24.1232 N.ar        1 YKI      -0.2805
     11 C6          2.2021    6.1607   34.6812 C.ar        1 YKI       0.1092
     12 N6          6.5645    6.0869   23.2904 N.pl3       1 YKI      -0.2631
     13 C7          3.1236    7.1222   31.4012 C.ar        1 YKI       0.0361
     14 C8          4.1154    8.2843   29.0015 C.ar        1 YKI      -0.0512
     15 C9          2.7689    8.4473   29.3581 C.ar        1 YKI      -0.0623
     16 C10         2.2763    7.8661   30.5414 C.ar        1 YKI      -0.0499
     17 C11         6.0687    5.3857   27.9003 C.2         1 YKI       0.2116
     18 C12         6.3861    4.8853   26.6448 C.ar        1 YKI       0.0544
     19 O13         5.3664    4.7102   28.6430 O.2         1 YKI      -0.3825
     20 C14         6.8014    3.5373   26.4863 C.ar        1 YKI      -0.0315
     21 C15         7.1668    3.0496   25.2137 C.ar        1 YKI       0.0006
     22 C16         6.3686    7.2132   29.5652 C.3         1 YKI       0.1112
     23 C17         4.9523    7.5171   29.8299 C.ar        1 YKI       0.0062
     24 C18         4.4818    6.9361   31.0209 C.ar        1 YKI       0.0013
     25 C19         6.6877    6.4176   30.7604 C.ar        1 YKI       0.0020
     26 C20         5.5673    6.2381   31.5879 C.ar        1 YKI      -0.0129
     27 C21         5.6913    5.4421   32.7480 C.ar        1 YKI      -0.0610
     28 C22         6.9461    4.9034   33.0982 C.ar        1 YKI      -0.0680
     29 C23         8.0682    5.1184   32.2742 C.ar        1 YKI      -0.0680
     30 C24         7.9390    5.8606   31.0859 C.ar        1 YKI      -0.0553
     31 C25         6.3233    5.6795   25.4727 C.ar        1 YKI       0.0172
     32 C26         6.7004    5.1451   24.2371 C.ar        1 YKI       0.1409
     33 C27         6.0795    7.2054   23.8510 C.2         1 YKI       0.0293
     34 C28         5.9056    6.9827   25.2134 C.2         1 YKI      -0.0523
     35 H1         -0.3970    3.9555   36.3574 H           1 YKI       0.0705
     36 H2          2.9025    6.4399   36.6624 H           1 YKI       0.0763
     37 H3          3.7750    7.3610   34.0669 H           1 YKI       0.2328
     38 H4         -0.4413    4.2283   33.9171 H           1 YKI       0.0643
     39 H5          7.1852    6.9876   27.6940 H           1 YKI       0.1910
     40 H6          6.7826    5.9960   22.3507 H           1 YKI       0.2313
     41 H7          4.4728    8.7045   28.1426 H           1 YKI       0.0605
     42 H8          2.1466    8.9919   28.7558 H           1 YKI       0.0605
     43 H9          1.2912    8.0159   30.7795 H           1 YKI       0.0619
     44 H10         6.8677    2.9101   27.2933 H           1 YKI       0.0656
     45 H11         7.4795    2.0835   25.1057 H           1 YKI       0.0758
     46 H12         6.9489    8.1382   29.5818 H           1 YKI       0.0919
     47 H13         4.8901    5.2327   33.3373 H           1 YKI       0.0603
     48 H14         7.0414    4.3477   33.9513 H           1 YKI       0.0563
     49 H15         8.9748    4.7261   32.5350 H           1 YKI       0.0597
     50 H16         8.7459    6.0023   30.4734 H           1 YKI       0.0566
     51 H17         5.8666    8.0692   23.3503 H           1 YKI       0.0983
     52 H18         5.5179    7.6469   25.8825 H           1 YKI       0.0310
@<TRIPOS>BOND
     1     1     2  ar
     2     5     1  ar
     3     3     2  ar
     4    11     3  ar
     5     7     4   1
     6     4    11   1
     7     9     5  ar
     8     7     6   2
     9     6     9   1
    10    13     7   1
    11     8    17  am
    12    22     8   1
    13     9    11  ar
    14    21    10  ar
    15    10    32  ar
    16    32    12   1
    17    12    33   1
    18    16    13  ar
    19    13    24  ar
    20    14    15  ar
    21    23    14  ar
    22    15    16  ar
    23    17    18   1
    24    17    19   2
    25    18    20  ar
    26    18    31  ar
    27    20    21  ar
    28    22    23   1
    29    22    25   1
    30    23    24  ar
    31    24    26   1
    32    25    26  ar
    33    25    30  ar
    34    26    27  ar
    35    27    28  ar
    36    28    29  ar
    37    29    30  ar
    38    31    32  ar
    39    31    34   1
    40    33    34   2
    41     1    35   1
    42     3    36   1
    43     4    37   1
    44     5    38   1
    45     8    39   1
    46    12    40   1
    47    14    41   1
    48    15    42   1
    49    16    43   1
    50    20    44   1
    51    21    45   1
    52    22    46   1
    53    27    47   1
    54    28    48   1
    55    29    49   1
    56    30    50   1
    57    33    51   1
    58    34    52   1
@<TRIPOS>SUBSTRUCTURE
     1  YKI      1

