@<TRIPOS>MOLECULE
2yki_ligand_014
    52    58
SMALL
GAST_HUCK
****
This file was generated by PARSER (from files_GN.cpp)

@<TRIPOS>ATOM
      1 C1          8.1742   -4.7859   14.3986 C.ar        1 YKI      -0.0069
      2 N1          9.1496   -3.8328   14.3971 N.ar        1 YKI      -0.3145
      3 C2          8.9117   -2.5224   14.6865 C.ar        1 YKI       0.0318
      4 N2          7.0546   -0.9681   15.3469 N.pl3       1 YKI      -0.2421
      5 C3          6.8468   -4.4392   14.7296 C.ar        1 YKI      -0.0358
      6 N3          5.4544   -2.4784   15.4240 N.2         1 YKI      -0.2951
      7 C4          5.7566   -1.1788   15.6269 C.2         1 YKI       0.1441
      8 N4          4.2476    3.4488   18.9096 N.am        1 YKI      -0.2584
      9 C5          6.5848   -3.0930   15.0441 C.ar        1 YKI       0.0509
     10 N5          4.3144    8.4319   19.2613 N.ar        1 YKI      -0.2805
     11 C6          7.5997   -2.1397   15.0018 C.ar        1 YKI       0.1092
     12 N6          2.7492    8.1536   17.4183 N.pl3       1 YKI      -0.2631
     13 C7          4.8352   -0.2144   16.0793 C.ar        1 YKI       0.0361
     14 C8          2.8048    1.5926   16.9221 C.ar        1 YKI      -0.0512
     15 C9          2.6720    0.9003   15.7076 C.ar        1 YKI      -0.0623
     16 C10         3.6671   -0.0074   15.3000 C.ar        1 YKI      -0.0499
     17 C11         3.8526    4.3005   19.8459 C.2         1 YKI       0.2116
     18 C12         3.9918    5.6611   19.6484 C.ar        1 YKI       0.0544
     19 O13         3.4542    3.9061   20.9348 O.2         1 YKI      -0.3825
     20 C14         4.8009    6.4370   20.5181 C.ar        1 YKI      -0.0315
     21 C15         4.9581    7.8213   20.2901 C.ar        1 YKI       0.0006
     22 C16         4.2237    2.0174   19.0112 C.3         1 YKI       0.1112
     23 C17         3.9597    1.3914   17.7050 C.ar        1 YKI       0.0062
     24 C18         4.9830    0.5148   17.2946 C.ar        1 YKI       0.0013
     25 C19         5.5529    1.4548   19.2965 C.ar        1 YKI       0.0020
     26 C20         5.9777    0.5632   18.2954 C.ar        1 YKI      -0.0129
     27 C21         7.2275   -0.0787   18.4407 C.ar        1 YKI      -0.0610
     28 C22         8.0420    0.2029   19.5548 C.ar        1 YKI      -0.0680
     29 C23         7.6018    1.0882   20.5553 C.ar        1 YKI      -0.0680
     30 C24         6.3438    1.7089   20.4388 C.ar        1 YKI      -0.0553
     31 C25         3.3353    6.3434   18.5908 C.ar        1 YKI       0.0172
     32 C26         3.5199    7.7205   18.4272 C.ar        1 YKI       0.1409
     33 C27         2.0626    7.1123   16.9175 C.2         1 YKI       0.0293
     34 C28         2.4151    5.9608   17.6166 C.2         1 YKI      -0.0523
     35 H1          8.4123   -5.7510   14.1617 H           1 YKI       0.0705
     36 H2          9.6713   -1.8423   14.6867 H           1 YKI       0.0763
     37 H3          7.5258   -0.1281   15.4359 H           1 YKI       0.2328
     38 H4          6.1059   -5.1414   14.7428 H           1 YKI       0.0643
     39 H5          4.6273    3.8294   18.0996 H           1 YKI       0.1910
     40 H6          2.6623    9.0768   17.1279 H           1 YKI       0.2313
     41 H7          2.0734    2.2384   17.2303 H           1 YKI       0.0605
     42 H8          1.8450    1.0464   15.1270 H           1 YKI       0.0605
     43 H9          3.5351   -0.5053   14.4135 H           1 YKI       0.0619
     44 H10         5.3103    5.9978   21.2911 H           1 YKI       0.0656
     45 H11         5.5448    8.3821   20.9095 H           1 YKI       0.0758
     46 H12         3.5012    1.6544   19.7509 H           1 YKI       0.0919
     47 H13         7.5653   -0.7482   17.7594 H           1 YKI       0.0603
     48 H14         8.9554   -0.2526   19.6386 H           1 YKI       0.0563
     49 H15         8.1923    1.2661   21.3715 H           1 YKI       0.0597
     50 H16         6.0107    2.3391   21.1751 H           1 YKI       0.0566
     51 H17         1.3715    7.1656   16.1657 H           1 YKI       0.0983
     52 H18         2.0259    5.0293   17.4664 H           1 YKI       0.0310
@<TRIPOS>BOND
     1     1     2  ar
     2     5     1  ar
     3     3     2  ar
     4    11     3  ar
     5     7     4   1
     6     4    11   1
     7     9     5  ar
     8     7     6   2
     9     6     9   1
    10    13     7   1
    11     8    17  am
    12    22     8   1
    13     9    11  ar
    14    21    10  ar
    15    10    32  ar
    16    32    12   1
    17    12    33   1
    18    16    13  ar
    19    13    24  ar
    20    14    15  ar
    21    23    14  ar
    22    15    16  ar
    23    17    18   1
    24    17    19   2
    25    18    20  ar
    26    18    31  ar
    27    20    21  ar
    28    22    23   1
    29    22    25   1
    30    23    24  ar
    31    24    26   1
    32    25    26  ar
    33    25    30  ar
    34    26    27  ar
    35    27    28  ar
    36    28    29  ar
    37    29    30  ar
    38    31    32  ar
    39    31    34   1
    40    33    34   2
    41     1    35   1
    42     3    36   1
    43     4    37   1
    44     5    38   1
    45     8    39   1
    46    12    40   1
    47    14    41   1
    48    15    42   1
    49    16    43   1
    50    20    44   1
    51    21    45   1
    52    22    46   1
    53    27    47   1
    54    28    48   1
    55    29    49   1
    56    30    50   1
    57    33    51   1
    58    34    52   1
@<TRIPOS>SUBSTRUCTURE
     1  YKI      1

