@<TRIPOS>MOLECULE
2yki_ligand_028
    52    58
SMALL
GAST_HUCK
****
This file was generated by PARSER (from files_GN.cpp)

@<TRIPOS>ATOM
      1 C1         -0.1375   -1.6328   22.8900 C.ar        1 YKI      -0.0069
      2 N1         -1.4881   -1.4478   22.9402 N.ar        1 YKI      -0.3145
      3 C2         -2.0666   -0.3519   23.5053 C.ar        1 YKI       0.0318
      4 N2         -1.4773    1.8105   24.6309 N.pl3       1 YKI      -0.2421
      5 C3          0.7320   -0.6705   23.4446 C.ar        1 YKI      -0.0358
      6 N3          0.7124    1.5643   24.5687 N.2         1 YKI      -0.2951
      7 C4         -0.2965    2.3948   24.9124 C.2         1 YKI       0.1441
      8 N4          1.0135    8.0788   24.7316 N.am        1 YKI      -0.2584
      9 C5          0.1540    0.4765   24.0134 C.ar        1 YKI       0.0509
     10 N5         -0.7902   12.5697   23.5312 N.ar        1 YKI      -0.2805
     11 C6         -1.2291    0.6348   24.0482 C.ar        1 YKI       0.1092
     12 N6         -2.4815   11.7516   25.0876 N.pl3       1 YKI      -0.2631
     13 C7         -0.1645    3.6620   25.5194 C.ar        1 YKI       0.0361
     14 C8          0.0755    6.1281   26.9214 C.ar        1 YKI      -0.0512
     15 C9         -0.7770    5.1234   27.4036 C.ar        1 YKI      -0.0623
     16 C10        -0.8984    3.9050   26.7080 C.ar        1 YKI      -0.0499
     17 C11         1.4975    9.3091   24.8517 C.2         1 YKI       0.2116
     18 C12         0.7415   10.3883   24.4328 C.ar        1 YKI       0.0544
     19 O13         2.6475    9.5107   25.2241 O.2         1 YKI      -0.3825
     20 C14         1.2585   11.3101   23.4857 C.ar        1 YKI      -0.0315
     21 C15         0.4637   12.3875   23.0399 C.ar        1 YKI       0.0006
     22 C16         1.6939    6.8678   25.0893 C.3         1 YKI       0.1112
     23 C17         0.7787    5.9092   25.7241 C.ar        1 YKI       0.0062
     24 C18         0.6681    4.6994   25.0134 C.ar        1 YKI       0.0013
     25 C19         2.0881    6.0955   23.9073 C.ar        1 YKI       0.0020
     26 C20         1.4713    4.8352   23.8658 C.ar        1 YKI      -0.0129
     27 C21         1.7185    3.9888   22.7605 C.ar        1 YKI      -0.0610
     28 C22         2.6243    4.3872   21.7566 C.ar        1 YKI      -0.0680
     29 C23         3.2635    5.6400   21.8330 C.ar        1 YKI      -0.0680
     30 C24         2.9873    6.5091   22.9052 C.ar        1 YKI      -0.0553
     31 C25        -0.5609   10.6276   24.9263 C.ar        1 YKI       0.0172
     32 C26        -1.2967   11.7216   24.4602 C.ar        1 YKI       0.1409
     33 C27        -2.5399   10.7384   25.9670 C.2         1 YKI       0.0293
     34 C28        -1.3561   10.0108   25.8897 C.2         1 YKI      -0.0523
     35 H1          0.2383   -2.4715   22.4451 H           1 YKI       0.0705
     36 H2         -3.0829   -0.2474   23.5211 H           1 YKI       0.0763
     37 H3         -2.3520    2.1943   24.7977 H           1 YKI       0.2328
     38 H4          1.7451   -0.7931   23.4171 H           1 YKI       0.0643
     39 H5          0.1376    7.9858   24.3190 H           1 YKI       0.1910
     40 H6         -3.1990   12.3800   24.9246 H           1 YKI       0.2313
     41 H7          0.1760    7.0082   27.4318 H           1 YKI       0.0605
     42 H8         -1.3013    5.2724   28.2683 H           1 YKI       0.0605
     43 H9         -1.5113    3.1848   27.0958 H           1 YKI       0.0619
     44 H10         2.2018   11.1940   23.1043 H           1 YKI       0.0656
     45 H11         0.8312   13.0417   22.3468 H           1 YKI       0.0758
     46 H12         2.5621    7.0323   25.7357 H           1 YKI       0.0919
     47 H13         1.2436    3.0958   22.6584 H           1 YKI       0.0603
     48 H14         2.8150    3.7676   20.9665 H           1 YKI       0.0563
     49 H15         3.9222    5.9236   21.1040 H           1 YKI       0.0597
     50 H16         3.4348    7.4258   22.9535 H           1 YKI       0.0566
     51 H17        -3.3255   10.5425   26.5895 H           1 YKI       0.0983
     52 H18        -1.1151    9.1943   26.4537 H           1 YKI       0.0310
@<TRIPOS>BOND
     1     1     2  ar
     2     5     1  ar
     3     3     2  ar
     4    11     3  ar
     5     7     4   1
     6     4    11   1
     7     9     5  ar
     8     7     6   2
     9     6     9   1
    10    13     7   1
    11     8    17  am
    12    22     8   1
    13     9    11  ar
    14    21    10  ar
    15    10    32  ar
    16    32    12   1
    17    12    33   1
    18    16    13  ar
    19    13    24  ar
    20    14    15  ar
    21    23    14  ar
    22    15    16  ar
    23    17    18   1
    24    17    19   2
    25    18    20  ar
    26    18    31  ar
    27    20    21  ar
    28    22    23   1
    29    22    25   1
    30    23    24  ar
    31    24    26   1
    32    25    26  ar
    33    25    30  ar
    34    26    27  ar
    35    27    28  ar
    36    28    29  ar
    37    29    30  ar
    38    31    32  ar
    39    31    34   1
    40    33    34   2
    41     1    35   1
    42     3    36   1
    43     4    37   1
    44     5    38   1
    45     8    39   1
    46    12    40   1
    47    14    41   1
    48    15    42   1
    49    16    43   1
    50    20    44   1
    51    21    45   1
    52    22    46   1
    53    27    47   1
    54    28    48   1
    55    29    49   1
    56    30    50   1
    57    33    51   1
    58    34    52   1
@<TRIPOS>SUBSTRUCTURE
     1  YKI      1

