@<TRIPOS>MOLECULE
2yki_ligand_083
    52    58
SMALL
GAST_HUCK
****
This file was generated by PARSER (from files_GN.cpp)

@<TRIPOS>ATOM
      1 C1          0.7794   13.7792   23.1306 C.ar        1 YKI      -0.0069
      2 N1         -0.4096   13.1713   22.8484 N.ar        1 YKI      -0.3145
      3 C2         -0.5954   11.8260   22.9472 C.ar        1 YKI       0.0318
      4 N2          0.6586    9.7135   23.4725 N.pl3       1 YKI      -0.2421
      5 C3          1.8839   13.0121   23.5638 C.ar        1 YKI      -0.0358
      6 N3          2.5669   10.6458   23.9703 N.2         1 YKI      -0.2951
      7 C4          1.9452    9.4663   23.8079 C.2         1 YKI       0.1441
      8 N4          6.2419    6.3169   25.9443 N.am        1 YKI      -0.2584
      9 C5          1.7156   11.6214   23.6533 C.ar        1 YKI       0.0509
     10 N5          7.5205    4.5425   30.5240 N.ar        1 YKI      -0.2805
     11 C6          0.4957   11.0311   23.3389 C.ar        1 YKI       0.1092
     12 N6          6.3611    6.6280   30.9712 N.pl3       1 YKI      -0.2631
     13 C7          2.5170    8.1735   23.9787 C.ar        1 YKI       0.0361
     14 C8          3.5119    5.5678   24.5953 C.ar        1 YKI      -0.0512
     15 C9          2.1329    5.7846   24.4749 C.ar        1 YKI      -0.0623
     16 C10         1.6445    7.0749   24.2024 C.ar        1 YKI      -0.0499
     17 C11         6.3496    5.1134   26.4977 C.2         1 YKI       0.2116
     18 C12         6.7127    4.9382   27.8375 C.ar        1 YKI       0.0544
     19 O13         6.1847    4.1194   25.7986 O.2         1 YKI      -0.3825
     20 C14         7.4395    3.7842   28.2464 C.ar        1 YKI      -0.0315
     21 C15         7.8434    3.6145   29.5872 C.ar        1 YKI       0.0006
     22 C16         5.8584    6.6025   24.5886 C.3         1 YKI       0.1112
     23 C17         4.3953    6.6430   24.3998 C.ar        1 YKI       0.0062
     24 C18         3.9201    7.9090   24.0016 C.ar        1 YKI       0.0013
     25 C19         6.1895    7.9795   24.1865 C.ar        1 YKI       0.0020
     26 C20         5.0647    8.6878   23.7357 C.ar        1 YKI      -0.0129
     27 C21         5.2567    9.8943   23.0232 C.ar        1 YKI      -0.0610
     28 C22         6.5442   10.4621   22.9356 C.ar        1 YKI      -0.0680
     29 C23         7.6464    9.8068   23.5180 C.ar        1 YKI      -0.0680
     30 C24         7.4770    8.5466   24.1184 C.ar        1 YKI      -0.0553
     31 C25         6.3784    5.8612   28.8667 C.ar        1 YKI       0.0172
     32 C26         6.8041    5.6384   30.1827 C.ar        1 YKI       0.1409
     33 C27         5.6376    7.4837   30.2312 C.2         1 YKI       0.0293
     34 C28         5.6177    7.0268   28.9162 C.2         1 YKI      -0.0523
     35 H1          0.8743   14.7888   23.0170 H           1 YKI       0.0705
     36 H2         -1.5008   11.4076   22.7255 H           1 YKI       0.0763
     37 H3         -0.0286    9.0451   23.3195 H           1 YKI       0.2328
     38 H4          2.7841   13.4511   23.7701 H           1 YKI       0.0643
     39 H5          6.4881    7.0772   26.4905 H           1 YKI       0.1910
     40 H6          6.5148    6.6992   31.9270 H           1 YKI       0.2313
     41 H7          3.8593    4.6431   24.8375 H           1 YKI       0.0605
     42 H8          1.4756    5.0133   24.6283 H           1 YKI       0.0605
     43 H9          0.6290    7.2019   24.1985 H           1 YKI       0.0619
     44 H10         7.6980    3.0586   27.5726 H           1 YKI       0.0656
     45 H11         8.3802    2.7874   29.8602 H           1 YKI       0.0758
     46 H12         6.3268    5.9080   23.8832 H           1 YKI       0.0919
     47 H13         4.4989   10.3360   22.5169 H           1 YKI       0.0603
     48 H14         6.6864   11.3397   22.4311 H           1 YKI       0.0563
     49 H15         8.5806   10.2198   23.4535 H           1 YKI       0.0597
     50 H16         8.2850    8.0404   24.4757 H           1 YKI       0.0566
     51 H17         5.1614    8.3157   30.5827 H           1 YKI       0.0983
     52 H18         5.1019    7.4606   28.1520 H           1 YKI       0.0310
@<TRIPOS>BOND
     1     1     2  ar
     2     5     1  ar
     3     3     2  ar
     4    11     3  ar
     5     7     4   1
     6     4    11   1
     7     9     5  ar
     8     7     6   2
     9     6     9   1
    10    13     7   1
    11     8    17  am
    12    22     8   1
    13     9    11  ar
    14    21    10  ar
    15    10    32  ar
    16    32    12   1
    17    12    33   1
    18    16    13  ar
    19    13    24  ar
    20    14    15  ar
    21    23    14  ar
    22    15    16  ar
    23    17    18   1
    24    17    19   2
    25    18    20  ar
    26    18    31  ar
    27    20    21  ar
    28    22    23   1
    29    22    25   1
    30    23    24  ar
    31    24    26   1
    32    25    26  ar
    33    25    30  ar
    34    26    27  ar
    35    27    28  ar
    36    28    29  ar
    37    29    30  ar
    38    31    32  ar
    39    31    34   1
    40    33    34   2
    41     1    35   1
    42     3    36   1
    43     4    37   1
    44     5    38   1
    45     8    39   1
    46    12    40   1
    47    14    41   1
    48    15    42   1
    49    16    43   1
    50    20    44   1
    51    21    45   1
    52    22    46   1
    53    27    47   1
    54    28    48   1
    55    29    49   1
    56    30    50   1
    57    33    51   1
    58    34    52   1
@<TRIPOS>SUBSTRUCTURE
     1  YKI      1

