@<TRIPOS>MOLECULE
2yki_ligand_086
    52    58
SMALL
GAST_HUCK
****
This file was generated by PARSER (from files_GN.cpp)

@<TRIPOS>ATOM
      1 C1          2.6536    6.3775   32.5216 C.ar        1 YKI      -0.0069
      2 N1          1.3803    6.8182   32.7429 N.ar        1 YKI      -0.3145
      3 C2          0.5547    7.2466   31.7479 C.ar        1 YKI       0.0318
      4 N2          0.5498    7.6739   29.2654 N.pl3       1 YKI      -0.2421
      5 C3          3.1572    6.3126   31.2055 C.ar        1 YKI      -0.0358
      6 N3          2.5424    6.8751   28.8581 N.2         1 YKI      -0.2951
      7 C4          1.4863    7.4911   28.2992 C.2         1 YKI       0.1441
      8 N4          2.8849    6.8191   22.6891 N.am        1 YKI      -0.2584
      9 C5          2.3239    6.7627   30.1676 C.ar        1 YKI       0.0509
     10 N5          2.3582    3.7044   18.7459 N.ar        1 YKI      -0.2805
     11 C6          1.0502    7.2538   30.4317 C.ar        1 YKI       0.1092
     12 N6          3.0261    5.3538   17.0809 N.pl3       1 YKI      -0.2631
     13 C7          1.3658    7.8908   26.9341 C.ar        1 YKI       0.0361
     14 C8          0.8444    8.5625   24.2046 C.ar        1 YKI      -0.0512
     15 C9         -0.1494    8.7479   25.1742 C.ar        1 YKI      -0.0623
     16 C10         0.1063    8.4026   26.5121 C.ar        1 YKI      -0.0499
     17 C11         3.5734    6.5946   21.5716 C.2         1 YKI       0.2116
     18 C12         3.1726    5.6372   20.6375 C.ar        1 YKI       0.0544
     19 O13         4.5789    7.2598   21.3476 O.2         1 YKI      -0.3825
     20 C14         2.6384    4.3811   21.0374 C.ar        1 YKI      -0.0315
     21 C15         2.2444    3.4297   20.0717 C.ar        1 YKI       0.0006
     22 C16         3.2062    7.8133   23.6738 C.3         1 YKI       0.1112
     23 C17         2.0993    8.0674   24.6029 C.ar        1 YKI       0.0062
     24 C18         2.4043    7.7858   25.9512 C.ar        1 YKI       0.0013
     25 C19         4.2183    7.3449   24.6246 C.ar        1 YKI       0.0020
     26 C20         3.7748    7.4158   25.9571 C.ar        1 YKI      -0.0129
     27 C21         4.7344    7.2074   26.9791 C.ar        1 YKI      -0.0610
     28 C22         6.0433    6.7800   26.6708 C.ar        1 YKI      -0.0680
     29 C23         6.4306    6.6220   25.3304 C.ar        1 YKI      -0.0680
     30 C24         5.5292    6.9322   24.2997 C.ar        1 YKI      -0.0553
     31 C25         3.2789    5.8659   19.2418 C.ar        1 YKI       0.0172
     32 C26         2.8601    4.8921   18.3305 C.ar        1 YKI       0.1409
     33 C27         3.5342    6.5957   17.1381 C.2         1 YKI       0.0293
     34 C28         3.7059    6.9467   18.4711 C.2         1 YKI      -0.0523
     35 H1          3.2303    6.0818   33.3097 H           1 YKI       0.0705
     36 H2         -0.3915    7.5646   31.9621 H           1 YKI       0.0763
     37 H3         -0.3254    8.0837   29.1510 H           1 YKI       0.2328
     38 H4          4.0999    5.9668   31.0132 H           1 YKI       0.0643
     39 H5          2.0689    6.3123   22.8250 H           1 YKI       0.1910
     40 H6          2.7991    4.8756   16.2674 H           1 YKI       0.2313
     41 H7          0.6536    8.7866   23.2217 H           1 YKI       0.0605
     42 H8         -1.0672    9.1032   24.8987 H           1 YKI       0.0605
     43 H9         -0.6672    8.5062   27.1728 H           1 YKI       0.0619
     44 H10         2.5481    4.1360   22.0259 H           1 YKI       0.0656
     45 H11         1.8628    2.5291   20.3627 H           1 YKI       0.0758
     46 H12         3.5058    8.7610   23.2128 H           1 YKI       0.0919
     47 H13         4.5437    7.4165   27.9474 H           1 YKI       0.0603
     48 H14         6.7306    6.6328   27.4180 H           1 YKI       0.0563
     49 H15         7.3821    6.3252   25.1084 H           1 YKI       0.0597
     50 H16         5.8396    6.8646   23.3310 H           1 YKI       0.0566
     51 H17         3.7458    7.1942   16.3389 H           1 YKI       0.0983
     52 H18         4.0551    7.8482   18.8003 H           1 YKI       0.0310
@<TRIPOS>BOND
     1     1     2  ar
     2     5     1  ar
     3     3     2  ar
     4    11     3  ar
     5     7     4   1
     6     4    11   1
     7     9     5  ar
     8     7     6   2
     9     6     9   1
    10    13     7   1
    11     8    17  am
    12    22     8   1
    13     9    11  ar
    14    21    10  ar
    15    10    32  ar
    16    32    12   1
    17    12    33   1
    18    16    13  ar
    19    13    24  ar
    20    14    15  ar
    21    23    14  ar
    22    15    16  ar
    23    17    18   1
    24    17    19   2
    25    18    20  ar
    26    18    31  ar
    27    20    21  ar
    28    22    23   1
    29    22    25   1
    30    23    24  ar
    31    24    26   1
    32    25    26  ar
    33    25    30  ar
    34    26    27  ar
    35    27    28  ar
    36    28    29  ar
    37    29    30  ar
    38    31    32  ar
    39    31    34   1
    40    33    34   2
    41     1    35   1
    42     3    36   1
    43     4    37   1
    44     5    38   1
    45     8    39   1
    46    12    40   1
    47    14    41   1
    48    15    42   1
    49    16    43   1
    50    20    44   1
    51    21    45   1
    52    22    46   1
    53    27    47   1
    54    28    48   1
    55    29    49   1
    56    30    50   1
    57    33    51   1
    58    34    52   1
@<TRIPOS>SUBSTRUCTURE
     1  YKI      1

