@<TRIPOS>MOLECULE
2yki_ligand_070
    52    58
SMALL
GAST_HUCK
****
This file was generated by PARSER (from files_GN.cpp)

@<TRIPOS>ATOM
      1 C1         13.7976   -0.7813   16.6806 C.ar        1 YKI      -0.0069
      2 N1         13.5109   -2.0179   17.1787 N.ar        1 YKI      -0.3145
      3 C2         12.3878   -2.2829   17.9008 C.ar        1 YKI       0.0318
      4 N2         10.3259   -1.1692   18.7922 N.pl3       1 YKI      -0.2421
      5 C3         12.9138    0.2969   16.9024 C.ar        1 YKI      -0.0358
      6 N3         10.7517    0.8583   18.0177 N.2         1 YKI      -0.2951
      7 C4          9.8881    0.1014   18.7254 C.2         1 YKI       0.1441
      8 N4          6.7612    3.8606   21.9455 N.am        1 YKI      -0.2584
      9 C5         11.7527    0.0448   17.6509 C.ar        1 YKI       0.0509
     10 N5          4.2814    8.1232   21.1501 N.ar        1 YKI      -0.2805
     11 C6         11.4874   -1.2315   18.1433 C.ar        1 YKI       0.1092
     12 N6          3.9170    7.4721   18.8320 N.pl3       1 YKI      -0.2631
     13 C7          8.6582    0.5244   19.2626 C.ar        1 YKI       0.0361
     14 C8          6.1111    1.0822   20.3837 C.ar        1 YKI      -0.0512
     15 C9          6.2243    0.2445   19.2603 C.ar        1 YKI      -0.0623
     16 C10         7.4841   -0.0289   18.7009 C.ar        1 YKI      -0.0499
     17 C11         5.4871    4.1477   21.7036 C.2         1 YKI       0.2116
     18 C12         5.1089    5.4602   21.5205 C.ar        1 YKI       0.0544
     19 O13         4.6265    3.2825   21.6446 O.2         1 YKI      -0.3825
     20 C14         5.1216    6.3860   22.5935 C.ar        1 YKI      -0.0315
     21 C15         4.6922    7.7150   22.3817 C.ar        1 YKI       0.0006
     22 C16         7.3465    2.5568   22.1117 C.3         1 YKI       0.1112
     23 C17         7.2696    1.6793   20.9217 C.ar        1 YKI       0.0062
     24 C18         8.5367    1.3913   20.3790 C.ar        1 YKI       0.0013
     25 C19         8.8105    2.6913   22.2208 C.ar        1 YKI       0.0020
     26 C20         9.4881    2.0250   21.1894 C.ar        1 YKI      -0.0129
     27 C21        10.8982    2.0607   21.1442 C.ar        1 YKI      -0.0610
     28 C22        11.6115    2.7852   22.1195 C.ar        1 YKI      -0.0680
     29 C23        10.9232    3.4513   23.1523 C.ar        1 YKI      -0.0680
     30 C24         9.5176    3.3963   23.2160 C.ar        1 YKI      -0.0553
     31 C25         4.6757    5.9305   20.2591 C.ar        1 YKI       0.0172
     32 C26         4.2754    7.2629   20.1075 C.ar        1 YKI       0.1409
     33 C27         4.0837    6.3312   18.1389 C.2         1 YKI       0.0293
     34 C28         4.5601    5.3461   19.0017 C.2         1 YKI      -0.0523
     35 H1         14.6560   -0.6380   16.1451 H           1 YKI       0.0705
     36 H2         12.2071   -3.2224   18.2556 H           1 YKI       0.0763
     37 H3          9.8769   -1.9053   19.2306 H           1 YKI       0.2328
     38 H4         13.1092    1.2288   16.5328 H           1 YKI       0.0643
     39 H5          7.3639    4.6179   22.0332 H           1 YKI       0.1910
     40 H6          3.5943    8.3138   18.4673 H           1 YKI       0.2313
     41 H7          5.1946    1.2359   20.8081 H           1 YKI       0.0605
     42 H8          5.3858   -0.1826   18.8645 H           1 YKI       0.0605
     43 H9          7.5334   -0.6527   17.8884 H           1 YKI       0.0619
     44 H10         5.4317    6.1011   23.5250 H           1 YKI       0.0656
     45 H11         4.6831    8.3838   23.1525 H           1 YKI       0.0758
     46 H12         6.9510    2.0540   22.9996 H           1 YKI       0.0919
     47 H13        11.4183    1.5669   20.4214 H           1 YKI       0.0603
     48 H14        12.6332    2.8180   22.0825 H           1 YKI       0.0563
     49 H15        11.4424    3.9745   23.8590 H           1 YKI       0.0597
     50 H16         9.0114    3.8696   23.9709 H           1 YKI       0.0566
     51 H17         3.8910    6.2118   17.1432 H           1 YKI       0.0983
     52 H18         4.7946    4.3825   18.7527 H           1 YKI       0.0310
@<TRIPOS>BOND
     1     1     2  ar
     2     5     1  ar
     3     3     2  ar
     4    11     3  ar
     5     7     4   1
     6     4    11   1
     7     9     5  ar
     8     7     6   2
     9     6     9   1
    10    13     7   1
    11     8    17  am
    12    22     8   1
    13     9    11  ar
    14    21    10  ar
    15    10    32  ar
    16    32    12   1
    17    12    33   1
    18    16    13  ar
    19    13    24  ar
    20    14    15  ar
    21    23    14  ar
    22    15    16  ar
    23    17    18   1
    24    17    19   2
    25    18    20  ar
    26    18    31  ar
    27    20    21  ar
    28    22    23   1
    29    22    25   1
    30    23    24  ar
    31    24    26   1
    32    25    26  ar
    33    25    30  ar
    34    26    27  ar
    35    27    28  ar
    36    28    29  ar
    37    29    30  ar
    38    31    32  ar
    39    31    34   1
    40    33    34   2
    41     1    35   1
    42     3    36   1
    43     4    37   1
    44     5    38   1
    45     8    39   1
    46    12    40   1
    47    14    41   1
    48    15    42   1
    49    16    43   1
    50    20    44   1
    51    21    45   1
    52    22    46   1
    53    27    47   1
    54    28    48   1
    55    29    49   1
    56    30    50   1
    57    33    51   1
    58    34    52   1
@<TRIPOS>SUBSTRUCTURE
     1  YKI      1

