@<TRIPOS>MOLECULE
2yki_ligand_053
    52    58
SMALL
GAST_HUCK
****
This file was generated by PARSER (from files_GN.cpp)

@<TRIPOS>ATOM
      1 C1          7.0647   10.8562   20.8683 C.ar        1 YKI      -0.0069
      2 N1          7.4064   11.9074   21.6669 N.ar        1 YKI      -0.3145
      3 C2          6.8656   12.1084   22.8997 C.ar        1 YKI       0.0318
      4 N2          5.2109   11.1087   24.5007 N.pl3       1 YKI      -0.2421
      5 C3          6.1098    9.9126   21.3030 C.ar        1 YKI      -0.0358
      6 N3          4.6311    9.3851   23.2476 N.2         1 YKI      -0.2951
      7 C4          4.4463   10.0026   24.4343 C.2         1 YKI       0.1441
      8 N4          3.0968    6.6387   28.9763 N.am        1 YKI      -0.2584
      9 C5          5.5411   10.1049   22.5737 C.ar        1 YKI       0.0509
     10 N5          3.6132    6.1957   33.9576 N.ar        1 YKI      -0.2805
     11 C6          5.9105   11.1900   23.3652 C.ar        1 YKI       0.1092
     12 N6          1.4785    7.3446   33.6972 N.pl3       1 YKI      -0.2631
     13 C7          3.5568    9.5696   25.4350 C.ar        1 YKI       0.0361
     14 C8          1.5920    8.7261   27.3087 C.ar        1 YKI      -0.0512
     15 C9          1.4957    9.9916   26.7040 C.ar        1 YKI      -0.0623
     16 C10         2.4706   10.4105   25.7782 C.ar        1 YKI      -0.0499
     17 C11         3.4379    5.6544   29.7988 C.2         1 YKI       0.2116
     18 C12         3.5079    5.8744   31.1633 C.ar        1 YKI       0.0544
     19 O13         3.6892    4.5310   29.3795 O.2         1 YKI      -0.3825
     20 C14         4.5743    5.3327   31.9262 C.ar        1 YKI      -0.0315
     21 C15         4.6133    5.5260   33.3238 C.ar        1 YKI       0.0006
     22 C16         2.9508    6.5538   27.5507 C.3         1 YKI       0.1112
     23 C17         2.6834    7.8936   26.9930 C.ar        1 YKI       0.0062
     24 C18         3.6661    8.3093   26.0795 C.ar        1 YKI       0.0013
     25 C19         4.2060    6.2313   26.8390 C.ar        1 YKI       0.0020
     26 C20         4.6262    7.2908   26.0189 C.ar        1 YKI      -0.0129
     27 C21         5.8649    7.2123   25.3482 C.ar        1 YKI      -0.0610
     28 C22         6.6367    6.0414   25.4490 C.ar        1 YKI      -0.0680
     29 C23         6.1894    4.9545   26.2203 C.ar        1 YKI      -0.0680
     30 C24         4.9706    5.0468   26.9183 C.ar        1 YKI      -0.0553
     31 C25         2.4972    6.5741   31.8652 C.ar        1 YKI       0.0172
     32 C26         2.5720    6.7043   33.2554 C.ar        1 YKI       0.1409
     33 C27         0.6886    7.6303   32.6483 C.2         1 YKI       0.0293
     34 C28         1.2936    7.1637   31.4867 C.2         1 YKI      -0.0523
     35 H1          7.4954   10.7692   19.9489 H           1 YKI       0.0705
     36 H2          7.1482   12.9095   23.4645 H           1 YKI       0.0763
     37 H3          5.2623   11.7247   25.2480 H           1 YKI       0.2328
     38 H4          5.8367    9.1230   20.7132 H           1 YKI       0.0643
     39 H5          2.9008    7.4994   29.3848 H           1 YKI       0.1910
     40 H6          1.2833    7.5505   34.6249 H           1 YKI       0.2313
     41 H7          0.8831    8.4229   27.9800 H           1 YKI       0.0605
     42 H8          0.7126   10.6063   26.9322 H           1 YKI       0.0605
     43 H9          2.3622   11.3286   25.3362 H           1 YKI       0.0619
     44 H10         5.3258    4.8035   31.4758 H           1 YKI       0.0656
     45 H11         5.3874    5.1465   33.8702 H           1 YKI       0.0758
     46 H12         2.1461    5.8678   27.2698 H           1 YKI       0.0919
     47 H13         6.2322    7.9933   24.8113 H           1 YKI       0.0603
     48 H14         7.5278    5.9788   24.9600 H           1 YKI       0.0563
     49 H15         6.7563    4.1051   26.2859 H           1 YKI       0.0597
     50 H16         4.6580    4.2578   27.4829 H           1 YKI       0.0566
     51 H17        -0.2181    8.0935   32.6957 H           1 YKI       0.0983
     52 H18         0.8985    7.2175   30.5466 H           1 YKI       0.0310
@<TRIPOS>BOND
     1     1     2  ar
     2     5     1  ar
     3     3     2  ar
     4    11     3  ar
     5     7     4   1
     6     4    11   1
     7     9     5  ar
     8     7     6   2
     9     6     9   1
    10    13     7   1
    11     8    17  am
    12    22     8   1
    13     9    11  ar
    14    21    10  ar
    15    10    32  ar
    16    32    12   1
    17    12    33   1
    18    16    13  ar
    19    13    24  ar
    20    14    15  ar
    21    23    14  ar
    22    15    16  ar
    23    17    18   1
    24    17    19   2
    25    18    20  ar
    26    18    31  ar
    27    20    21  ar
    28    22    23   1
    29    22    25   1
    30    23    24  ar
    31    24    26   1
    32    25    26  ar
    33    25    30  ar
    34    26    27  ar
    35    27    28  ar
    36    28    29  ar
    37    29    30  ar
    38    31    32  ar
    39    31    34   1
    40    33    34   2
    41     1    35   1
    42     3    36   1
    43     4    37   1
    44     5    38   1
    45     8    39   1
    46    12    40   1
    47    14    41   1
    48    15    42   1
    49    16    43   1
    50    20    44   1
    51    21    45   1
    52    22    46   1
    53    27    47   1
    54    28    48   1
    55    29    49   1
    56    30    50   1
    57    33    51   1
    58    34    52   1
@<TRIPOS>SUBSTRUCTURE
     1  YKI      1

