@<TRIPOS>MOLECULE
2yki_ligand_003
    52    58
SMALL
GAST_HUCK
****
This file was generated by PARSER (from files_GN.cpp)

@<TRIPOS>ATOM
      1 C1          4.8654   12.9588   23.7755 C.ar        1 YKI      -0.0069
      2 N1          6.1473   12.6714   23.4015 N.ar        1 YKI      -0.3145
      3 C2          6.5111   11.4597   22.8803 C.ar        1 YKI       0.0318
      4 N2          5.5330    9.2358   22.2590 N.pl3       1 YKI      -0.2421
      5 C3          3.8435   11.9924   23.6459 C.ar        1 YKI      -0.0358
      6 N3          3.4582    9.6452   22.8486 N.2         1 YKI      -0.2951
      7 C4          4.2878    8.7073   22.3418 C.2         1 YKI       0.1441
      8 N4          1.8770    3.2861   22.8456 N.am        1 YKI      -0.2584
      9 C5          4.1915   10.7458   23.0925 C.ar        1 YKI       0.0509
     10 N5         -1.8351    0.3180   21.4566 N.ar        1 YKI      -0.2805
     11 C6          5.5095   10.4860   22.7192 C.ar        1 YKI       0.1092
     12 N6         -2.9037    0.7454   23.6073 N.pl3       1 YKI      -0.2631
     13 C7          3.9999    7.3673   21.9482 C.ar        1 YKI       0.0361
     14 C8          3.9588    4.6459   21.0528 C.ar        1 YKI      -0.0512
     15 C9          4.4373    5.6564   20.2101 C.ar        1 YKI      -0.0623
     16 C10         4.4567    6.9914   20.6535 C.ar        1 YKI      -0.0499
     17 C11         1.5510    2.0452   23.1871 C.2         1 YKI       0.2116
     18 C12         0.4388    1.4688   22.6228 C.ar        1 YKI       0.0544
     19 O13         2.2073    1.3788   23.9777 O.2         1 YKI      -0.3825
     20 C14         0.4725    0.9869   21.2909 C.ar        1 YKI      -0.0315
     21 C15        -0.6904    0.4156   20.7285 C.ar        1 YKI       0.0006
     22 C16         3.0061    4.0284   23.3211 C.3         1 YKI       0.1112
     23 C17         3.4643    5.0022   22.3203 C.ar        1 YKI       0.0062
     24 C18         3.4188    6.3443   22.7665 C.ar        1 YKI       0.0013
     25 C19         2.6064    4.9521   24.3859 C.ar        1 YKI       0.0020
     26 C20         2.8185    6.2997   24.0511 C.ar        1 YKI      -0.0129
     27 C21         2.3383    7.2884   24.9438 C.ar        1 YKI      -0.0610
     28 C22         1.7224    6.9230   26.1592 C.ar        1 YKI      -0.0680
     29 C23         1.5542    5.5653   26.4898 C.ar        1 YKI      -0.0680
     30 C24         1.9959    4.5708   25.6004 C.ar        1 YKI      -0.0553
     31 C25        -0.7700    1.3429   23.3451 C.ar        1 YKI       0.0172
     32 C26        -1.8845    0.7623   22.7351 C.ar        1 YKI       0.1409
     33 C27        -2.4965    1.2888   24.7666 C.2         1 YKI       0.0293
     34 C28        -1.1655    1.6779   24.6370 C.2         1 YKI      -0.0523
     35 H1          4.6532   13.8890   24.1487 H           1 YKI       0.0705
     36 H2          7.4828   11.2665   22.6144 H           1 YKI       0.0763
     37 H3          6.3214    8.7703   21.9351 H           1 YKI       0.2328
     38 H4          2.8850   12.1864   23.9465 H           1 YKI       0.0643
     39 H5          1.2967    3.7347   22.2091 H           1 YKI       0.1910
     40 H6         -3.7915    0.3997   23.4269 H           1 YKI       0.2313
     41 H7          3.9704    3.6674   20.7500 H           1 YKI       0.0605
     42 H8          4.8093    5.4163   19.2894 H           1 YKI       0.0605
     43 H9          4.8466    7.6924   20.0128 H           1 YKI       0.0619
     44 H10         1.3210    1.0582   20.7232 H           1 YKI       0.0656
     45 H11        -0.6792    0.0707   19.7660 H           1 YKI       0.0758
     46 H12         3.8422    3.3983   23.6565 H           1 YKI       0.0919
     47 H13         2.3656    8.2755   24.7211 H           1 YKI       0.0603
     48 H14         1.3808    7.6492   26.7909 H           1 YKI       0.0563
     49 H15         1.0927    5.3006   27.3685 H           1 YKI       0.0597
     50 H16         1.8472    3.5823   25.8214 H           1 YKI       0.0566
     51 H17        -3.0686    1.3930   25.6060 H           1 YKI       0.0983
     52 H18        -0.5956    2.1231   25.3619 H           1 YKI       0.0310
@<TRIPOS>BOND
     1     1     2  ar
     2     5     1  ar
     3     3     2  ar
     4    11     3  ar
     5     7     4   1
     6     4    11   1
     7     9     5  ar
     8     7     6   2
     9     6     9   1
    10    13     7   1
    11     8    17  am
    12    22     8   1
    13     9    11  ar
    14    21    10  ar
    15    10    32  ar
    16    32    12   1
    17    12    33   1
    18    16    13  ar
    19    13    24  ar
    20    14    15  ar
    21    23    14  ar
    22    15    16  ar
    23    17    18   1
    24    17    19   2
    25    18    20  ar
    26    18    31  ar
    27    20    21  ar
    28    22    23   1
    29    22    25   1
    30    23    24  ar
    31    24    26   1
    32    25    26  ar
    33    25    30  ar
    34    26    27  ar
    35    27    28  ar
    36    28    29  ar
    37    29    30  ar
    38    31    32  ar
    39    31    34   1
    40    33    34   2
    41     1    35   1
    42     3    36   1
    43     4    37   1
    44     5    38   1
    45     8    39   1
    46    12    40   1
    47    14    41   1
    48    15    42   1
    49    16    43   1
    50    20    44   1
    51    21    45   1
    52    22    46   1
    53    27    47   1
    54    28    48   1
    55    29    49   1
    56    30    50   1
    57    33    51   1
    58    34    52   1
@<TRIPOS>SUBSTRUCTURE
     1  YKI      1

