@<TRIPOS>MOLECULE
2yki_ligand_046
    52    58
SMALL
GAST_HUCK
****
This file was generated by PARSER (from files_GN.cpp)

@<TRIPOS>ATOM
      1 C1          6.2916    0.7891   25.8074 C.ar        1 YKI      -0.0069
      2 N1          7.4386    1.0266   25.1055 N.ar        1 YKI      -0.3145
      3 C2          7.6923    2.2017   24.4683 C.ar        1 YKI       0.0318
      4 N2          6.6625    4.4544   24.0366 N.pl3       1 YKI      -0.2421
      5 C3          5.2971    1.7855   25.8945 C.ar        1 YKI      -0.0358
      6 N3          4.7917    4.1132   25.1471 N.2         1 YKI      -0.2951
      7 C4          5.4972    5.0077   24.4259 C.2         1 YKI       0.1441
      8 N4          4.1116   10.6183   25.5560 N.am        1 YKI      -0.2584
      9 C5          5.5428    3.0061   25.2446 C.ar        1 YKI       0.0509
     10 N5          6.7745   14.9400   25.3830 N.ar        1 YKI      -0.2805
     11 C6          6.7247    3.2187   24.5412 C.ar        1 YKI       0.1092
     12 N6          4.4788   15.6749   25.1116 N.pl3       1 YKI      -0.2631
     13 C7          5.0224    6.2744   24.0346 C.ar        1 YKI       0.0361
     14 C8          3.8601    8.6879   23.0695 C.ar        1 YKI      -0.0512
     15 C9          4.4293    7.7691   22.1688 C.ar        1 YKI      -0.0623
     16 C10         5.0074    6.5796   22.6471 C.ar        1 YKI      -0.0499
     17 C11         5.2566   11.0150   25.0075 C.2         1 YKI       0.2116
     18 C12         5.7304   12.3269   25.1408 C.ar        1 YKI       0.0544
     19 O13         5.9377   10.2048   24.3967 O.2         1 YKI      -0.3825
     20 C14         7.1220   12.5664   25.3165 C.ar        1 YKI      -0.0315
     21 C15         7.6193   13.8790   25.4372 C.ar        1 YKI       0.0006
     22 C16         3.4688    9.3305   25.5181 C.3         1 YKI       0.1112
     23 C17         3.9210    8.4260   24.4459 C.ar        1 YKI       0.0062
     24 C18         4.5003    7.2391   24.9417 C.ar        1 YKI       0.0013
     25 C19         3.8129    8.5225   26.6937 C.ar        1 YKI       0.0020
     26 C20         4.4589    7.3245   26.3466 C.ar        1 YKI      -0.0129
     27 C21         4.9881    6.5078   27.3697 C.ar        1 YKI      -0.0610
     28 C22         4.7573    6.8399   28.7220 C.ar        1 YKI      -0.0680
     29 C23         4.0421    8.0061   29.0578 C.ar        1 YKI      -0.0680
     30 C24         3.5769    8.8618   28.0424 C.ar        1 YKI      -0.0553
     31 C25         4.8932   13.4728   25.0820 C.ar        1 YKI       0.0172
     32 C26         5.4461   14.7514   25.2087 C.ar        1 YKI       0.1409
     33 C27         3.3066   15.0517   24.9122 C.2         1 YKI       0.0293
     34 C28         3.5258   13.6797   24.8767 C.2         1 YKI      -0.0523
     35 H1          6.1568   -0.1133   26.2643 H           1 YKI       0.0705
     36 H2          8.5602    2.3368   23.9500 H           1 YKI       0.0763
     37 H3          7.3382    4.8812   23.4840 H           1 YKI       0.2328
     38 H4          4.4302    1.6280   26.4108 H           1 YKI       0.0643
     39 H5          3.6740   11.2661   26.1336 H           1 YKI       0.1910
     40 H6          4.6135   16.6338   25.1544 H           1 YKI       0.2313
     41 H7          3.4599    9.5623   22.7280 H           1 YKI       0.0605
     42 H8          4.4233    7.9646   21.1680 H           1 YKI       0.0605
     43 H9          5.3784    5.9136   21.9633 H           1 YKI       0.0619
     44 H10         7.7887   11.7894   25.3676 H           1 YKI       0.0656
     45 H11         8.6186   14.0366   25.5658 H           1 YKI       0.0758
     46 H12         2.3877    9.4638   25.4669 H           1 YKI       0.0919
     47 H13         5.5452    5.6827   27.1606 H           1 YKI       0.0603
     48 H14         5.1205    6.2365   29.4659 H           1 YKI       0.0563
     49 H15         3.8808    8.2441   30.0390 H           1 YKI       0.0597
     50 H16         3.0865    9.7272   28.2809 H           1 YKI       0.0566
     51 H17         2.4037   15.5122   24.7834 H           1 YKI       0.0983
     52 H18         2.8076   12.9751   24.7059 H           1 YKI       0.0310
@<TRIPOS>BOND
     1     1     2  ar
     2     5     1  ar
     3     3     2  ar
     4    11     3  ar
     5     7     4   1
     6     4    11   1
     7     9     5  ar
     8     7     6   2
     9     6     9   1
    10    13     7   1
    11     8    17  am
    12    22     8   1
    13     9    11  ar
    14    21    10  ar
    15    10    32  ar
    16    32    12   1
    17    12    33   1
    18    16    13  ar
    19    13    24  ar
    20    14    15  ar
    21    23    14  ar
    22    15    16  ar
    23    17    18   1
    24    17    19   2
    25    18    20  ar
    26    18    31  ar
    27    20    21  ar
    28    22    23   1
    29    22    25   1
    30    23    24  ar
    31    24    26   1
    32    25    26  ar
    33    25    30  ar
    34    26    27  ar
    35    27    28  ar
    36    28    29  ar
    37    29    30  ar
    38    31    32  ar
    39    31    34   1
    40    33    34   2
    41     1    35   1
    42     3    36   1
    43     4    37   1
    44     5    38   1
    45     8    39   1
    46    12    40   1
    47    14    41   1
    48    15    42   1
    49    16    43   1
    50    20    44   1
    51    21    45   1
    52    22    46   1
    53    27    47   1
    54    28    48   1
    55    29    49   1
    56    30    50   1
    57    33    51   1
    58    34    52   1
@<TRIPOS>SUBSTRUCTURE
     1  YKI      1

