@<TRIPOS>MOLECULE
2yki_ligand_082
    52    58
SMALL
GAST_HUCK
****
This file was generated by PARSER (from files_GN.cpp)

@<TRIPOS>ATOM
      1 C1         18.3755    5.6997   31.8354 C.ar        1 YKI      -0.0069
      2 N1         17.3135    5.6548   32.6894 N.ar        1 YKI      -0.3145
      3 C2         16.4563    6.7001   32.8611 C.ar        1 YKI       0.0318
      4 N2         16.0386    9.0448   32.0718 N.pl3       1 YKI      -0.2421
      5 C3         18.6287    6.8628   31.0773 C.ar        1 YKI      -0.0358
      6 N3         17.7375    9.1608   30.6621 N.2         1 YKI      -0.2951
      7 C4         16.6903    9.8283   31.1931 C.2         1 YKI       0.1441
      8 N4         16.7330   15.5540   32.1009 N.am        1 YKI      -0.2584
      9 C5         17.7522    7.9501   31.2403 C.ar        1 YKI       0.0509
     10 N5         19.3774   19.6756   31.0240 N.ar        1 YKI      -0.2805
     11 C6         16.6798    7.8744   32.1256 C.ar        1 YKI       0.1092
     12 N6         18.6652   20.8568   33.0330 N.pl3       1 YKI      -0.2631
     13 C7         16.2970   11.1312   30.8413 C.ar        1 YKI       0.0361
     14 C8         15.3417   13.6896   30.0449 C.ar        1 YKI      -0.0512
     15 C9         15.3897   12.6296   29.1213 C.ar        1 YKI      -0.0623
     16 C10        15.8686   11.3641   29.5129 C.ar        1 YKI      -0.0499
     17 C11        16.4299   16.8443   32.0493 C.2         1 YKI       0.2116
     18 C12        17.4009   17.7843   31.7204 C.ar        1 YKI       0.0544
     19 O13        15.2910   17.2192   32.3027 O.2         1 YKI      -0.3825
     20 C14        18.1988   17.6304   30.5549 C.ar        1 YKI      -0.0315
     21 C15        19.1784   18.5914   30.2264 C.ar        1 YKI       0.0006
     22 C16        15.8539   14.4712   32.4371 C.3         1 YKI       0.1112
     23 C17        15.7981   13.4710   31.3578 C.ar        1 YKI       0.0062
     24 C18        16.2740   12.2116   31.7628 C.ar        1 YKI       0.0013
     25 C19        16.4304   13.6532   33.5136 C.ar        1 YKI       0.0020
     26 C20        16.6851   12.3369   33.0992 C.ar        1 YKI      -0.0129
     27 C21        17.3007   11.4317   33.9913 C.ar        1 YKI      -0.0610
     28 C22        17.6194   11.8497   35.2986 C.ar        1 YKI      -0.0680
     29 C23        17.3336   13.1658   35.7145 C.ar        1 YKI      -0.0680
     30 C24        16.7385   14.0768   34.8218 C.ar        1 YKI      -0.0553
     31 C25        17.6335   18.9449   32.5019 C.ar        1 YKI       0.0172
     32 C26        18.6291   19.8572   32.1391 C.ar        1 YKI       0.1409
     33 C27        17.7324   20.6325   33.9718 C.2         1 YKI       0.0293
     34 C28        17.0742   19.4429   33.6770 C.2         1 YKI      -0.0523
     35 H1         18.9876    4.8855   31.7500 H           1 YKI       0.0705
     36 H2         15.6701    6.6244   33.5083 H           1 YKI       0.0763
     37 H3         15.2453    9.2862   32.5706 H           1 YKI       0.2328
     38 H4         19.4218    6.9133   30.4333 H           1 YKI       0.0643
     39 H5         17.6596   15.3149   31.9322 H           1 YKI       0.1910
     40 H6         19.2629   21.6168   33.0025 H           1 YKI       0.2313
     41 H7         14.9923   14.6085   29.7607 H           1 YKI       0.0605
     42 H8         15.0751   12.7815   28.1580 H           1 YKI       0.0605
     43 H9         15.8847   10.6127   28.8203 H           1 YKI       0.0619
     44 H10        18.0616   16.8375   29.9247 H           1 YKI       0.0656
     45 H11        19.7405   18.4848   29.3780 H           1 YKI       0.0758
     46 H12        14.8456   14.7895   32.7082 H           1 YKI       0.0919
     47 H13        17.5377   10.4849   33.7062 H           1 YKI       0.0603
     48 H14        18.0613   11.1950   35.9478 H           1 YKI       0.0563
     49 H15        17.5712   13.4632   36.6624 H           1 YKI       0.0597
     50 H16        16.5448   15.0354   35.1163 H           1 YKI       0.0566
     51 H17        17.5349   21.2365   34.7681 H           1 YKI       0.0983
     52 H18        16.3253   19.0232   34.2337 H           1 YKI       0.0310
@<TRIPOS>BOND
     1     1     2  ar
     2     5     1  ar
     3     3     2  ar
     4    11     3  ar
     5     7     4   1
     6     4    11   1
     7     9     5  ar
     8     7     6   2
     9     6     9   1
    10    13     7   1
    11     8    17  am
    12    22     8   1
    13     9    11  ar
    14    21    10  ar
    15    10    32  ar
    16    32    12   1
    17    12    33   1
    18    16    13  ar
    19    13    24  ar
    20    14    15  ar
    21    23    14  ar
    22    15    16  ar
    23    17    18   1
    24    17    19   2
    25    18    20  ar
    26    18    31  ar
    27    20    21  ar
    28    22    23   1
    29    22    25   1
    30    23    24  ar
    31    24    26   1
    32    25    26  ar
    33    25    30  ar
    34    26    27  ar
    35    27    28  ar
    36    28    29  ar
    37    29    30  ar
    38    31    32  ar
    39    31    34   1
    40    33    34   2
    41     1    35   1
    42     3    36   1
    43     4    37   1
    44     5    38   1
    45     8    39   1
    46    12    40   1
    47    14    41   1
    48    15    42   1
    49    16    43   1
    50    20    44   1
    51    21    45   1
    52    22    46   1
    53    27    47   1
    54    28    48   1
    55    29    49   1
    56    30    50   1
    57    33    51   1
    58    34    52   1
@<TRIPOS>SUBSTRUCTURE
     1  YKI      1

