@<TRIPOS>MOLECULE
2yki_ligand_039
    52    58
SMALL
GAST_HUCK
****
This file was generated by PARSER (from files_GN.cpp)

@<TRIPOS>ATOM
      1 C1          9.4699   10.7723   21.3812 C.ar        1 YKI      -0.0069
      2 N1          9.7800   10.3301   22.6364 N.ar        1 YKI      -0.3145
      3 C2          8.8448   10.0488   23.5807 C.ar        1 YKI       0.0318
      4 N2          6.3644   10.1142   23.9463 N.pl3       1 YKI      -0.2421
      5 C3          8.1198   10.9508   21.0094 C.ar        1 YKI      -0.0358
      6 N3          5.8079   10.8014   21.9180 N.2         1 YKI      -0.2951
      7 C4          5.3454   10.4602   23.1323 C.2         1 YKI       0.1441
      8 N4          0.4961    7.6515   24.6325 N.am        1 YKI      -0.2584
      9 C5          7.1406   10.6761   21.9728 C.ar        1 YKI       0.0509
     10 N5         -0.9310    5.4191   28.8485 N.ar        1 YKI      -0.2805
     11 C6          7.4947   10.2363   23.2513 C.ar        1 YKI       0.1092
     12 N6          0.3905    6.8211   30.3173 N.pl3       1 YKI      -0.2631
     13 C7          4.0021   10.5244   23.5202 C.ar        1 YKI       0.0361
     14 C8          1.3084   10.7204   24.3888 C.ar        1 YKI      -0.0512
     15 C9          2.2005   11.7812   24.6152 C.ar        1 YKI      -0.0623
     16 C10         3.5418   11.6821   24.1925 C.ar        1 YKI      -0.0499
     17 C11         1.1589    7.2857   25.7149 C.2         1 YKI       0.2116
     18 C12         0.4786    6.6673   26.7571 C.ar        1 YKI       0.0544
     19 O13         2.3382    7.5677   25.8485 O.2         1 YKI      -0.3825
     20 C14        -0.5260    5.6956   26.4948 C.ar        1 YKI      -0.0315
     21 C15        -1.2113    5.0771   27.5665 C.ar        1 YKI       0.0006
     22 C16         0.9998    8.3245   23.4710 C.3         1 YKI       0.1112
     23 C17         1.7676    9.5627   23.7322 C.ar        1 YKI       0.0062
     24 C18         3.0930    9.4624   23.2864 C.ar        1 YKI       0.0013
     25 C19         2.0172    7.5310   22.7630 C.ar        1 YKI       0.0020
     26 C20         3.2420    8.2069   22.6716 C.ar        1 YKI      -0.0129
     27 C21         4.3226    7.6074   21.9870 C.ar        1 YKI      -0.0610
     28 C22         4.1409    6.3444   21.3850 C.ar        1 YKI      -0.0680
     29 C23         2.9062    5.6744   21.4878 C.ar        1 YKI      -0.0680
     30 C24         1.8374    6.2635   22.1847 C.ar        1 YKI      -0.0553
     31 C25         0.7307    6.9915   28.1121 C.ar        1 YKI       0.0172
     32 C26         0.0115    6.3459   29.1240 C.ar        1 YKI       0.1409
     33 C27         1.3345    7.7621   30.1347 C.2         1 YKI       0.0293
     34 C28         1.5712    7.8892   28.7638 C.2         1 YKI      -0.0523
     35 H1         10.2197   10.9915   20.7202 H           1 YKI       0.0705
     36 H2          9.1248    9.7340   24.5109 H           1 YKI       0.0763
     37 H3          6.2881    9.8528   24.8744 H           1 YKI       0.2328
     38 H4          7.8620   11.2973   20.0810 H           1 YKI       0.0643
     39 H5         -0.4624    7.4716   24.6164 H           1 YKI       0.1910
     40 H6          0.0370    6.5330   31.1744 H           1 YKI       0.2313
     41 H7          0.3403   10.7854   24.7114 H           1 YKI       0.0605
     42 H8          1.8899   12.6159   25.1087 H           1 YKI       0.0605
     43 H9          4.1800   12.4619   24.3740 H           1 YKI       0.0619
     44 H10        -0.7800    5.4227   25.5411 H           1 YKI       0.0656
     45 H11        -1.9139    4.3490   27.3838 H           1 YKI       0.0758
     46 H12         0.1682    8.5356   22.7978 H           1 YKI       0.0919
     47 H13         5.2227    8.0780   21.9006 H           1 YKI       0.0603
     48 H14         4.9070    5.9285   20.8493 H           1 YKI       0.0563
     49 H15         2.7824    4.7641   21.0429 H           1 YKI       0.0597
     50 H16         0.9360    5.7868   22.2542 H           1 YKI       0.0566
     51 H17         1.7993    8.2808   30.8821 H           1 YKI       0.0983
     52 H18         2.2270    8.5520   28.3461 H           1 YKI       0.0310
@<TRIPOS>BOND
     1     1     2  ar
     2     5     1  ar
     3     3     2  ar
     4    11     3  ar
     5     7     4   1
     6     4    11   1
     7     9     5  ar
     8     7     6   2
     9     6     9   1
    10    13     7   1
    11     8    17  am
    12    22     8   1
    13     9    11  ar
    14    21    10  ar
    15    10    32  ar
    16    32    12   1
    17    12    33   1
    18    16    13  ar
    19    13    24  ar
    20    14    15  ar
    21    23    14  ar
    22    15    16  ar
    23    17    18   1
    24    17    19   2
    25    18    20  ar
    26    18    31  ar
    27    20    21  ar
    28    22    23   1
    29    22    25   1
    30    23    24  ar
    31    24    26   1
    32    25    26  ar
    33    25    30  ar
    34    26    27  ar
    35    27    28  ar
    36    28    29  ar
    37    29    30  ar
    38    31    32  ar
    39    31    34   1
    40    33    34   2
    41     1    35   1
    42     3    36   1
    43     4    37   1
    44     5    38   1
    45     8    39   1
    46    12    40   1
    47    14    41   1
    48    15    42   1
    49    16    43   1
    50    20    44   1
    51    21    45   1
    52    22    46   1
    53    27    47   1
    54    28    48   1
    55    29    49   1
    56    30    50   1
    57    33    51   1
    58    34    52   1
@<TRIPOS>SUBSTRUCTURE
     1  YKI      1

