@<TRIPOS>MOLECULE
2yki_ligand_009
    52    58
SMALL
GAST_HUCK
****
This file was generated by PARSER (from files_GN.cpp)

@<TRIPOS>ATOM
      1 C1         -3.0307   10.9179   26.8163 C.ar        1 YKI      -0.0069
      2 N1         -2.5143   10.2420   27.8831 N.ar        1 YKI      -0.3145
      3 C2         -1.4228    9.4333   27.7947 C.ar        1 YKI       0.0318
      4 N2          0.2386    8.5754   26.1282 N.pl3       1 YKI      -0.2421
      5 C3         -2.4442   10.7857   25.5408 C.ar        1 YKI      -0.0358
      6 N3         -0.5710    9.6341   24.3637 N.2         1 YKI      -0.2951
      7 C4          0.3696    8.7739   24.8047 C.2         1 YKI       0.1441
      8 N4          2.7439    4.3139   21.9047 N.am        1 YKI      -0.2584
      9 C5         -1.3250    9.9472   25.4274 C.ar        1 YKI       0.0509
     10 N5          3.1896    2.3773   17.2801 N.ar        1 YKI      -0.2805
     11 C6         -0.8149    9.2815   26.5394 C.ar        1 YKI       0.1092
     12 N6          5.4388    1.4924   17.5645 N.pl3       1 YKI      -0.2631
     13 C7          1.3907    8.2264   24.0202 C.ar        1 YKI       0.0361
     14 C8          3.6208    7.2479   22.5725 C.ar        1 YKI      -0.0512
     15 C9          3.3990    8.6287   22.6696 C.ar        1 YKI      -0.0623
     16 C10         2.2850    9.1147   23.3756 C.ar        1 YKI      -0.0499
     17 C11         3.7642    4.1252   21.0713 C.2         1 YKI       0.2116
     18 C12         3.5771    3.5410   19.8206 C.ar        1 YKI       0.0544
     19 O13         4.8967    4.4469   21.4117 O.2         1 YKI      -0.3825
     20 C14         2.3574    3.6972   19.1088 C.ar        1 YKI      -0.0315
     21 C15         2.1911    3.1110   17.8367 C.ar        1 YKI       0.0006
     22 C16         2.8280    4.8891   23.2135 C.3         1 YKI       0.1112
     23 C17         2.7226    6.3579   23.1920 C.ar        1 YKI       0.0062
     24 C18         1.6124    6.8286   23.9129 C.ar        1 YKI       0.0013
     25 C19         1.6410    4.5590   24.0124 C.ar        1 YKI       0.0020
     26 C20         0.9344    5.7025   24.4120 C.ar        1 YKI      -0.0129
     27 C21        -0.2385    5.5527   25.1871 C.ar        1 YKI      -0.0610
     28 C22        -0.6499    4.2693   25.5964 C.ar        1 YKI      -0.0680
     29 C23         0.0694    3.1296   25.1893 C.ar        1 YKI      -0.0680
     30 C24         1.2146    3.2688   24.3834 C.ar        1 YKI      -0.0553
     31 C25         4.5855    2.7637   19.1926 C.ar        1 YKI       0.0172
     32 C26         4.3595    2.1962   17.9357 C.ar        1 YKI       0.1409
     33 C27         6.3615    1.5643   18.5369 C.2         1 YKI       0.0293
     34 C28         5.8631    2.3527   19.5687 C.2         1 YKI      -0.0523
     35 H1         -3.8387   11.5257   26.9494 H           1 YKI       0.0705
     36 H2         -1.0617    8.9502   28.6181 H           1 YKI       0.0763
     37 H3          0.7934    8.0005   26.6778 H           1 YKI       0.2328
     38 H4         -2.8161   11.2774   24.7270 H           1 YKI       0.0643
     39 H5          1.8622    4.0215   21.6149 H           1 YKI       0.1910
     40 H6          5.5309    0.9967   16.7367 H           1 YKI       0.2313
     41 H7          4.4378    6.9080   22.0661 H           1 YKI       0.0605
     42 H8          4.0610    9.2776   22.2362 H           1 YKI       0.0605
     43 H9          2.1647   10.1277   23.4509 H           1 YKI       0.0619
     44 H10         1.5906    4.2541   19.4926 H           1 YKI       0.0656
     45 H11         1.3160    3.2363   17.3246 H           1 YKI       0.0758
     46 H12         3.7274    4.5700   23.7497 H           1 YKI       0.0919
     47 H13        -0.8049    6.3514   25.4627 H           1 YKI       0.0603
     48 H14        -1.4744    4.1669   26.1907 H           1 YKI       0.0563
     49 H15        -0.2437    2.2002   25.4802 H           1 YKI       0.0597
     50 H16         1.7334    2.4419   24.0828 H           1 YKI       0.0566
     51 H17         7.2711    1.0997   18.5297 H           1 YKI       0.0983
     52 H18         6.3455    2.5561   20.4468 H           1 YKI       0.0310
@<TRIPOS>BOND
     1     1     2  ar
     2     5     1  ar
     3     3     2  ar
     4    11     3  ar
     5     7     4   1
     6     4    11   1
     7     9     5  ar
     8     7     6   2
     9     6     9   1
    10    13     7   1
    11     8    17  am
    12    22     8   1
    13     9    11  ar
    14    21    10  ar
    15    10    32  ar
    16    32    12   1
    17    12    33   1
    18    16    13  ar
    19    13    24  ar
    20    14    15  ar
    21    23    14  ar
    22    15    16  ar
    23    17    18   1
    24    17    19   2
    25    18    20  ar
    26    18    31  ar
    27    20    21  ar
    28    22    23   1
    29    22    25   1
    30    23    24  ar
    31    24    26   1
    32    25    26  ar
    33    25    30  ar
    34    26    27  ar
    35    27    28  ar
    36    28    29  ar
    37    29    30  ar
    38    31    32  ar
    39    31    34   1
    40    33    34   2
    41     1    35   1
    42     3    36   1
    43     4    37   1
    44     5    38   1
    45     8    39   1
    46    12    40   1
    47    14    41   1
    48    15    42   1
    49    16    43   1
    50    20    44   1
    51    21    45   1
    52    22    46   1
    53    27    47   1
    54    28    48   1
    55    29    49   1
    56    30    50   1
    57    33    51   1
    58    34    52   1
@<TRIPOS>SUBSTRUCTURE
     1  YKI      1

