@<TRIPOS>MOLECULE
2yki_ligand_087
    52    58
SMALL
GAST_HUCK
****
This file was generated by PARSER (from files_GN.cpp)

@<TRIPOS>ATOM
      1 C1         18.5755   10.8406   38.0776 C.ar        1 YKI      -0.0069
      2 N1         18.1204    9.9364   37.1631 N.ar        1 YKI      -0.3145
      3 C2         17.5591   10.2979   35.9769 C.ar        1 YKI       0.0318
      4 N2         16.9776   12.3344   34.6204 N.pl3       1 YKI      -0.2421
      5 C3         18.4707   12.2235   37.8176 C.ar        1 YKI      -0.0358
      6 N3         17.6835   13.8346   36.0790 N.2         1 YKI      -0.2951
      7 C4         17.1377   13.6512   34.8588 C.2         1 YKI       0.1441
      8 N4         16.5402   15.6795   29.3981 N.am        1 YKI      -0.2584
      9 C5         17.8996   12.6140   36.5953 C.ar        1 YKI       0.0509
     10 N5         13.5773   14.3688   25.5930 N.ar        1 YKI      -0.2805
     11 C6         17.4521   11.6663   35.6795 C.ar        1 YKI       0.1092
     12 N6         11.6425   15.0066   26.9228 N.pl3       1 YKI      -0.2631
     13 C7         16.7378   14.6882   33.9989 C.ar        1 YKI       0.0361
     14 C8         15.7250   16.7261   32.2873 C.ar        1 YKI      -0.0512
     15 C9         15.2181   16.5741   33.5900 C.ar        1 YKI      -0.0623
     16 C10        15.7137   15.5624   34.4344 C.ar        1 YKI      -0.0499
     17 C11        15.7262   14.6573   29.1829 C.2         1 YKI       0.2116
     18 C12        15.0094   14.5750   28.0062 C.ar        1 YKI       0.0544
     19 O13        15.5878   13.7403   29.9825 O.2         1 YKI      -0.3825
     20 C14        15.6563   14.2106   26.8019 C.ar        1 YKI      -0.0315
     21 C15        14.9103   14.1121   25.6046 C.ar        1 YKI       0.0006
     22 C16        17.4051   15.8995   30.5320 C.3         1 YKI       0.1112
     23 C17        16.7532   15.8723   31.8566 C.ar        1 YKI       0.0062
     24 C18        17.2859   14.8829   32.7007 C.ar        1 YKI       0.0013
     25 C19        18.4231   14.8551   30.7306 C.ar        1 YKI       0.0020
     26 C20        18.3539   14.2818   32.0118 C.ar        1 YKI      -0.0129
     27 C21        19.3220   13.3360   32.4031 C.ar        1 YKI      -0.0610
     28 C22        20.3169   12.9349   31.4840 C.ar        1 YKI      -0.0680
     29 C23        20.3572   13.4962   30.1902 C.ar        1 YKI      -0.0680
     30 C24        19.4216   14.4746   29.8152 C.ar        1 YKI      -0.0553
     31 C25        13.6177   14.8160   27.9532 C.ar        1 YKI       0.0172
     32 C26        12.9373   14.7130   26.7344 C.ar        1 YKI       0.1409
     33 C27        11.4507   15.3020   28.2190 C.2         1 YKI       0.0293
     34 C28        12.6658   15.1876   28.8921 C.2         1 YKI      -0.0523
     35 H1         18.9931   10.5110   38.9477 H           1 YKI       0.0705
     36 H2         17.2350    9.5870   35.3191 H           1 YKI       0.0763
     37 H3         16.5776   11.9397   33.8310 H           1 YKI       0.2328
     38 H4         18.8069   12.9163   38.4887 H           1 YKI       0.0643
     39 H5         16.5679   16.3815   28.7277 H           1 YKI       0.1910
     40 H6         10.9626   15.0115   26.2316 H           1 YKI       0.2313
     41 H7         15.3520   17.4499   31.6689 H           1 YKI       0.0605
     42 H8         14.4745   17.1921   33.9178 H           1 YKI       0.0605
     43 H9         15.3003   15.4589   35.3666 H           1 YKI       0.0619
     44 H10        16.6579   14.0128   26.7827 H           1 YKI       0.0656
     45 H11        15.3712   13.8425   24.7355 H           1 YKI       0.0758
     46 H12        17.9095   16.8619   30.4048 H           1 YKI       0.0919
     47 H13        19.3328   12.9482   33.3458 H           1 YKI       0.0603
     48 H14        21.0194   12.2445   31.7587 H           1 YKI       0.0563
     49 H15        21.0828   13.2055   29.5292 H           1 YKI       0.0597
     50 H16        19.4729   14.9164   28.8963 H           1 YKI       0.0566
     51 H17        10.5588   15.5736   28.6324 H           1 YKI       0.0983
     52 H18        12.8265   15.3646   29.8866 H           1 YKI       0.0310
@<TRIPOS>BOND
     1     1     2  ar
     2     5     1  ar
     3     3     2  ar
     4    11     3  ar
     5     7     4   1
     6     4    11   1
     7     9     5  ar
     8     7     6   2
     9     6     9   1
    10    13     7   1
    11     8    17  am
    12    22     8   1
    13     9    11  ar
    14    21    10  ar
    15    10    32  ar
    16    32    12   1
    17    12    33   1
    18    16    13  ar
    19    13    24  ar
    20    14    15  ar
    21    23    14  ar
    22    15    16  ar
    23    17    18   1
    24    17    19   2
    25    18    20  ar
    26    18    31  ar
    27    20    21  ar
    28    22    23   1
    29    22    25   1
    30    23    24  ar
    31    24    26   1
    32    25    26  ar
    33    25    30  ar
    34    26    27  ar
    35    27    28  ar
    36    28    29  ar
    37    29    30  ar
    38    31    32  ar
    39    31    34   1
    40    33    34   2
    41     1    35   1
    42     3    36   1
    43     4    37   1
    44     5    38   1
    45     8    39   1
    46    12    40   1
    47    14    41   1
    48    15    42   1
    49    16    43   1
    50    20    44   1
    51    21    45   1
    52    22    46   1
    53    27    47   1
    54    28    48   1
    55    29    49   1
    56    30    50   1
    57    33    51   1
    58    34    52   1
@<TRIPOS>SUBSTRUCTURE
     1  YKI      1

