@<TRIPOS>MOLECULE
2yki_ligand_065
    52    58
SMALL
GAST_HUCK
****
This file was generated by PARSER (from files_GN.cpp)

@<TRIPOS>ATOM
      1 C1         10.9830   15.9033   26.2748 C.ar        1 YKI      -0.0069
      2 N1          9.8245   16.0366   26.9809 N.ar        1 YKI      -0.3145
      3 C2          8.8079   15.1334   26.9241 C.ar        1 YKI       0.0318
      4 N2          8.1882   12.9542   25.8325 N.pl3       1 YKI      -0.2421
      5 C3         11.1630   14.8031   25.4123 C.ar        1 YKI      -0.0358
      6 N3          9.9969   12.7460   24.6086 N.2         1 YKI      -0.2951
      7 C4          8.7997   12.1871   24.9049 C.2         1 YKI       0.1441
      8 N4          4.7165    8.3350   22.9324 N.am        1 YKI      -0.2584
      9 C5         10.1209   13.8690   25.3300 C.ar        1 YKI       0.0509
     10 N5          3.2442    6.5204   18.5091 N.ar        1 YKI      -0.2805
     11 C6          8.9641   14.0131   26.0872 C.ar        1 YKI       0.1092
     12 N6          2.3928    4.4128   19.3649 N.pl3       1 YKI      -0.2631
     13 C7          8.3540   10.9345   24.3900 C.ar        1 YKI       0.0361
     14 C8          7.7425    8.2571   23.5991 C.ar        1 YKI      -0.0512
     15 C9          9.0559    8.7373   23.5027 C.ar        1 YKI      -0.0623
     16 C10         9.3552   10.0435   23.9175 C.ar        1 YKI      -0.0499
     17 C11         4.7611    7.1183   22.3932 C.2         1 YKI       0.2116
     18 C12         4.2651    6.8991   21.1113 C.ar        1 YKI       0.0544
     19 O13         5.2343    6.1753   23.0154 O.2         1 YKI      -0.3825
     20 C14         4.4815    7.8560   20.0829 C.ar        1 YKI      -0.0315
     21 C15         3.9415    7.6476   18.7954 C.ar        1 YKI       0.0006
     22 C16         5.2997    8.7634   24.1758 C.3         1 YKI       0.1112
     23 C17         6.7250    9.1269   24.0324 C.ar        1 YKI       0.0062
     24 C18         7.0020   10.4688   24.3671 C.ar        1 YKI       0.0013
     25 C19         4.7645   10.0745   24.5917 C.ar        1 YKI       0.0020
     26 C20         5.7559   11.0721   24.6267 C.ar        1 YKI      -0.0129
     27 C21         5.3670   12.4230   24.7712 C.ar        1 YKI      -0.0610
     28 C22         4.0219   12.7405   25.0469 C.ar        1 YKI      -0.0680
     29 C23         3.0484   11.7228   25.1035 C.ar        1 YKI      -0.0680
     30 C24         3.4135   10.3838   24.8557 C.ar        1 YKI      -0.0553
     31 C25         3.5462    5.7307   20.7574 C.ar        1 YKI       0.0172
     32 C26         3.0521    5.5749   19.4593 C.ar        1 YKI       0.1409
     33 C27         2.4343    3.7949   20.5567 C.2         1 YKI       0.0293
     34 C28         3.1429    4.5911   21.4519 C.2         1 YKI      -0.0523
     35 H1         11.7172   16.6088   26.3749 H           1 YKI       0.0705
     36 H2          7.9541   15.2711   27.4632 H           1 YKI       0.0763
     37 H3          7.3422   12.7656   26.2633 H           1 YKI       0.2328
     38 H4         12.0237   14.6842   24.8725 H           1 YKI       0.0643
     39 H5          4.2263    9.0089   22.4356 H           1 YKI       0.1910
     40 H6          1.9529    4.0810   18.5678 H           1 YKI       0.2313
     41 H7          7.5377    7.2922   23.3380 H           1 YKI       0.0605
     42 H8          9.8015    8.1281   23.1624 H           1 YKI       0.0605
     43 H9         10.3383   10.3223   23.8978 H           1 YKI       0.0619
     44 H10         5.0351    8.7000   20.2579 H           1 YKI       0.0656
     45 H11         4.0664    8.3505   18.0656 H           1 YKI       0.0758
     46 H12         5.1480    8.0291   24.9722 H           1 YKI       0.0919
     47 H13         6.0298   13.1847   24.6291 H           1 YKI       0.0603
     48 H14         3.7433   13.7160   25.1789 H           1 YKI       0.0563
     49 H15         2.0684   11.9630   25.2780 H           1 YKI       0.0597
     50 H16         2.6995    9.6514   24.8376 H           1 YKI       0.0566
     51 H17         2.0063    2.8917   20.7647 H           1 YKI       0.0983
     52 H18         3.3189    4.3761   22.4340 H           1 YKI       0.0310
@<TRIPOS>BOND
     1     1     2  ar
     2     5     1  ar
     3     3     2  ar
     4    11     3  ar
     5     7     4   1
     6     4    11   1
     7     9     5  ar
     8     7     6   2
     9     6     9   1
    10    13     7   1
    11     8    17  am
    12    22     8   1
    13     9    11  ar
    14    21    10  ar
    15    10    32  ar
    16    32    12   1
    17    12    33   1
    18    16    13  ar
    19    13    24  ar
    20    14    15  ar
    21    23    14  ar
    22    15    16  ar
    23    17    18   1
    24    17    19   2
    25    18    20  ar
    26    18    31  ar
    27    20    21  ar
    28    22    23   1
    29    22    25   1
    30    23    24  ar
    31    24    26   1
    32    25    26  ar
    33    25    30  ar
    34    26    27  ar
    35    27    28  ar
    36    28    29  ar
    37    29    30  ar
    38    31    32  ar
    39    31    34   1
    40    33    34   2
    41     1    35   1
    42     3    36   1
    43     4    37   1
    44     5    38   1
    45     8    39   1
    46    12    40   1
    47    14    41   1
    48    15    42   1
    49    16    43   1
    50    20    44   1
    51    21    45   1
    52    22    46   1
    53    27    47   1
    54    28    48   1
    55    29    49   1
    56    30    50   1
    57    33    51   1
    58    34    52   1
@<TRIPOS>SUBSTRUCTURE
     1  YKI      1

