@<TRIPOS>MOLECULE
2yki_ligand_040
    52    58
SMALL
GAST_HUCK
****
This file was generated by PARSER (from files_GN.cpp)

@<TRIPOS>ATOM
      1 C1          8.6341   10.6403   22.1175 C.ar        1 YKI      -0.0069
      2 N1          8.9406   10.1539   23.3534 N.ar        1 YKI      -0.3145
      3 C2          8.1152    9.3255   24.0556 C.ar        1 YKI       0.0318
      4 N2          5.8912    8.1668   23.8760 N.pl3       1 YKI      -0.2421
      5 C3          7.4132   10.2924   21.5009 C.ar        1 YKI      -0.0358
      6 N3          5.3582    8.9280   21.8722 N.2         1 YKI      -0.2951
      7 C4          4.9677    8.1435   22.8968 C.2         1 YKI       0.1441
      8 N4          2.1166    3.0756   23.2266 N.am        1 YKI      -0.2584
      9 C5          6.5518    9.4391   22.2079 C.ar        1 YKI       0.0509
     10 N5          0.0734   -0.1191   26.4537 N.ar        1 YKI      -0.2805
     11 C6          6.8916    8.9582   23.4716 C.ar        1 YKI       0.1092
     12 N6         -0.8634    2.0079   27.1815 N.pl3       1 YKI      -0.2631
     13 C7          3.7795    7.3986   22.8894 C.ar        1 YKI       0.0361
     14 C8          1.2982    6.0274   22.6817 C.ar        1 YKI      -0.0512
     15 C9          1.3236    7.4054   22.9522 C.ar        1 YKI      -0.0623
     16 C10         2.5530    8.0904   23.0326 C.ar        1 YKI      -0.0499
     17 C11         1.3624    1.9994   23.0677 C.2         1 YKI       0.2116
     18 C12         0.9270    1.3115   24.1786 C.ar        1 YKI       0.0544
     19 O13         1.0945    1.5642   21.9511 O.2         1 YKI      -0.3825
     20 C14         1.1702   -0.0840   24.3084 C.ar        1 YKI      -0.0315
     21 C15         0.7473   -0.7693   25.4658 C.ar        1 YKI       0.0006
     22 C16         2.6591    3.9074   22.1970 C.3         1 YKI       0.1112
     23 C17         2.5148    5.3363   22.5274 C.ar        1 YKI       0.0062
     24 C18         3.7482    5.9987   22.6492 C.ar        1 YKI       0.0013
     25 C19         4.1248    3.8090   22.1543 C.ar        1 YKI       0.0020
     26 C20         4.7509    5.0358   22.4288 C.ar        1 YKI      -0.0129
     27 C21         6.1595    5.1017   22.4436 C.ar        1 YKI      -0.0610
     28 C22         6.9208    3.9452   22.1854 C.ar        1 YKI      -0.0680
     29 C23         6.2803    2.7225   21.8989 C.ar        1 YKI      -0.0680
     30 C24         4.8752    2.6504   21.8813 C.ar        1 YKI      -0.0553
     31 C25         0.2194    1.9405   25.2284 C.ar        1 YKI       0.0172
     32 C26        -0.1942    1.2030   26.3405 C.ar        1 YKI       0.1409
     33 C27        -0.9050    3.2445   26.6601 C.2         1 YKI       0.0293
     34 C28        -0.2387    3.2406   25.4400 C.2         1 YKI      -0.0523
     35 H1          9.2996   11.2456   21.6354 H           1 YKI       0.0705
     36 H2          8.3903    8.9781   24.9784 H           1 YKI       0.0763
     37 H3          5.8556    7.6744   24.7108 H           1 YKI       0.2328
     38 H4          7.1751   10.6316   20.5658 H           1 YKI       0.0643
     39 H5          2.3596    3.3016   24.1379 H           1 YKI       0.1910
     40 H6         -1.2615    1.7273   28.0183 H           1 YKI       0.2313
     41 H7          0.4073    5.5359   22.5866 H           1 YKI       0.0605
     42 H8          0.4443    7.9155   23.0614 H           1 YKI       0.0605
     43 H9          2.5415    9.0987   23.2002 H           1 YKI       0.0619
     44 H10         1.6851   -0.5952   23.5853 H           1 YKI       0.0656
     45 H11         0.9500   -1.7675   25.5743 H           1 YKI       0.0758
     46 H12         2.2466    3.7090   21.2042 H           1 YKI       0.0919
     47 H13         6.6449    5.9708   22.6451 H           1 YKI       0.0603
     48 H14         7.9388    3.9959   22.1920 H           1 YKI       0.0563
     49 H15         6.8349    1.8901   21.7023 H           1 YKI       0.0597
     50 H16         4.4076    1.7630   21.6764 H           1 YKI       0.0566
     51 H17        -1.3753    4.0484   27.0845 H           1 YKI       0.0983
     52 H18        -0.1203    4.0371   24.8152 H           1 YKI       0.0310
@<TRIPOS>BOND
     1     1     2  ar
     2     5     1  ar
     3     3     2  ar
     4    11     3  ar
     5     7     4   1
     6     4    11   1
     7     9     5  ar
     8     7     6   2
     9     6     9   1
    10    13     7   1
    11     8    17  am
    12    22     8   1
    13     9    11  ar
    14    21    10  ar
    15    10    32  ar
    16    32    12   1
    17    12    33   1
    18    16    13  ar
    19    13    24  ar
    20    14    15  ar
    21    23    14  ar
    22    15    16  ar
    23    17    18   1
    24    17    19   2
    25    18    20  ar
    26    18    31  ar
    27    20    21  ar
    28    22    23   1
    29    22    25   1
    30    23    24  ar
    31    24    26   1
    32    25    26  ar
    33    25    30  ar
    34    26    27  ar
    35    27    28  ar
    36    28    29  ar
    37    29    30  ar
    38    31    32  ar
    39    31    34   1
    40    33    34   2
    41     1    35   1
    42     3    36   1
    43     4    37   1
    44     5    38   1
    45     8    39   1
    46    12    40   1
    47    14    41   1
    48    15    42   1
    49    16    43   1
    50    20    44   1
    51    21    45   1
    52    22    46   1
    53    27    47   1
    54    28    48   1
    55    29    49   1
    56    30    50   1
    57    33    51   1
    58    34    52   1
@<TRIPOS>SUBSTRUCTURE
     1  YKI      1

