@<TRIPOS>MOLECULE
2yki_ligand_012
    52    58
SMALL
GAST_HUCK
****
This file was generated by PARSER (from files_GN.cpp)

@<TRIPOS>ATOM
      1 C1         -3.0991   10.4750   26.4763 C.ar        1 YKI      -0.0069
      2 N1         -2.7263   10.0872   27.7293 N.ar        1 YKI      -0.3145
      3 C2         -1.4619    9.6909   28.0418 C.ar        1 YKI       0.0318
      4 N2          0.8110    9.4137   27.0096 N.pl3       1 YKI      -0.2421
      5 C3         -2.1596   10.4670   25.4220 C.ar        1 YKI      -0.0358
      6 N3          0.2451   10.0188   24.9608 N.2         1 YKI      -0.2951
      7 C4          1.2624    9.6344   25.7630 C.2         1 YKI       0.1441
      8 N4          6.4750   12.0917   24.7524 N.am        1 YKI      -0.2584
      9 C5         -0.8497   10.0654   25.7299 C.ar        1 YKI       0.0509
     10 N5         10.7966   13.8181   26.6325 N.ar        1 YKI      -0.2805
     11 C6         -0.4950    9.6910   27.0240 C.ar        1 YKI       0.1092
     12 N6          9.1413   15.1207   27.8469 N.pl3       1 YKI      -0.2631
     13 C7          2.6011    9.5380   25.3586 C.ar        1 YKI       0.0361
     14 C8          5.2943    9.2445   24.5088 C.ar        1 YKI      -0.0512
     15 C9          4.5814    8.1359   24.9982 C.ar        1 YKI      -0.0623
     16 C10         3.2476    8.2832   25.4217 C.ar        1 YKI      -0.0499
     17 C11         7.5779   12.5941   24.2280 C.2         1 YKI       0.2116
     18 C12         8.6294   12.9876   25.0370 C.ar        1 YKI       0.0544
     19 O13         7.6994   12.7530   23.0242 O.2         1 YKI      -0.3825
     20 C14         9.9501   12.5546   24.7654 C.ar        1 YKI      -0.0315
     21 C15        11.0165   12.9636   25.5961 C.ar        1 YKI       0.0006
     22 C16         5.2827   11.7584   24.0272 C.3         1 YKI       0.1112
     23 C17         4.6657   10.5021   24.4658 C.ar        1 YKI       0.0062
     24 C18         3.3306   10.6627   24.8803 C.ar        1 YKI       0.0013
     25 C19         4.1998   12.6928   24.3415 C.ar        1 YKI       0.0020
     26 C20         3.0399   12.0367   24.7748 C.ar        1 YKI      -0.0129
     27 C21         1.8824   12.8041   25.0530 C.ar        1 YKI      -0.0610
     28 C22         1.9251   14.2097   24.9371 C.ar        1 YKI      -0.0680
     29 C23         3.1237   14.8525   24.5741 C.ar        1 YKI      -0.0680
     30 C24         4.2618   14.0941   24.2540 C.ar        1 YKI      -0.0553
     31 C25         8.4486   13.8628   26.1367 C.ar        1 YKI       0.0172
     32 C26         9.5470   14.2667   26.8978 C.ar        1 YKI       0.1409
     33 C27         7.8123   15.2901   27.7433 C.2         1 YKI       0.0293
     34 C28         7.3451   14.5197   26.6813 C.2         1 YKI      -0.0523
     35 H1         -4.0596   10.7603   26.3023 H           1 YKI       0.0705
     36 H2         -1.2241    9.4169   28.9947 H           1 YKI       0.0763
     37 H3          1.3440    9.1437   27.7760 H           1 YKI       0.2328
     38 H4         -2.4172   10.7543   24.4780 H           1 YKI       0.0643
     39 H5          6.4432   11.9838   25.7111 H           1 YKI       0.1910
     40 H6          9.7120   15.5429   28.5041 H           1 YKI       0.2313
     41 H7          6.2673    9.1339   24.2055 H           1 YKI       0.0605
     42 H8          5.0311    7.2188   25.0479 H           1 YKI       0.0605
     43 H9          2.7459    7.4658   25.7704 H           1 YKI       0.0619
     44 H10        10.1434   11.9208   23.9837 H           1 YKI       0.0656
     45 H11        11.9677   12.6328   25.4177 H           1 YKI       0.0758
     46 H12         5.4244   11.7280   22.9449 H           1 YKI       0.0919
     47 H13         1.0133   12.3727   25.3492 H           1 YKI       0.0603
     48 H14         1.0917   14.7632   25.1489 H           1 YKI       0.0563
     49 H15         3.1619   15.8721   24.5302 H           1 YKI       0.0597
     50 H16         5.1285   14.5598   23.9782 H           1 YKI       0.0566
     51 H17         7.2432   15.8775   28.3495 H           1 YKI       0.0983
     52 H18         6.3759   14.4617   26.3689 H           1 YKI       0.0310
@<TRIPOS>BOND
     1     1     2  ar
     2     5     1  ar
     3     3     2  ar
     4    11     3  ar
     5     7     4   1
     6     4    11   1
     7     9     5  ar
     8     7     6   2
     9     6     9   1
    10    13     7   1
    11     8    17  am
    12    22     8   1
    13     9    11  ar
    14    21    10  ar
    15    10    32  ar
    16    32    12   1
    17    12    33   1
    18    16    13  ar
    19    13    24  ar
    20    14    15  ar
    21    23    14  ar
    22    15    16  ar
    23    17    18   1
    24    17    19   2
    25    18    20  ar
    26    18    31  ar
    27    20    21  ar
    28    22    23   1
    29    22    25   1
    30    23    24  ar
    31    24    26   1
    32    25    26  ar
    33    25    30  ar
    34    26    27  ar
    35    27    28  ar
    36    28    29  ar
    37    29    30  ar
    38    31    32  ar
    39    31    34   1
    40    33    34   2
    41     1    35   1
    42     3    36   1
    43     4    37   1
    44     5    38   1
    45     8    39   1
    46    12    40   1
    47    14    41   1
    48    15    42   1
    49    16    43   1
    50    20    44   1
    51    21    45   1
    52    22    46   1
    53    27    47   1
    54    28    48   1
    55    29    49   1
    56    30    50   1
    57    33    51   1
    58    34    52   1
@<TRIPOS>SUBSTRUCTURE
     1  YKI      1

