@<TRIPOS>MOLECULE
2ymd_ligand_017
    26    27
SMALL
GAST_HUCK
****
This file was generated by PARSER (from files_GN.cpp)

@<TRIPOS>ATOM
      1 OH         15.1817   11.7836    9.7290 O.3         1 SRO      -0.3421
      2 CZ3        14.1800   10.8671    9.7581 C.ar        1 SRO       0.0693
      3 CH2        13.7324   10.3412   10.9928 C.ar        1 SRO      -0.0459
      4 CZ2        12.6915    9.3930   11.0385 C.ar        1 SRO      -0.0495
      5 CE2        12.0886    9.0075    9.8332 C.ar        1 SRO       0.0512
      6 NE1        11.0558    8.1838    9.6029 N.pl3       1 SRO      -0.2936
      7 CD1        10.8382    8.0960    8.2808 C.2         1 SRO       0.0142
      8 CG         11.7533    8.9191    7.6246 C.2         1 SRO      -0.0452
      9 CD2        12.5351    9.5073    8.6115 C.ar        1 SRO      -0.0312
     10 CE3        13.5874   10.4400    8.5518 C.ar        1 SRO      -0.0489
     11 CB         11.8730    9.1305    6.1716 C.3         1 SRO       0.0032
     12 CA         12.8610    8.1559    5.4870 C.3         1 SRO      -0.0314
     13 NZ         14.1794    8.0675    6.1393 N.4         1 SRO       0.2194
     14 H1         14.8240   12.5649   10.1989 H           1 SRO       0.2441
     15 H2         14.1575   10.6552   11.8669 H           1 SRO       0.0481
     16 H3         12.3858    9.0050   11.9260 H           1 SRO       0.0526
     17 H4         10.5189    7.7685   10.2934 H           1 SRO       0.2193
     18 H5         10.1086    7.5301    7.8378 H           1 SRO       0.0790
     19 H6         13.9033   10.8238    7.6613 H           1 SRO       0.0435
     20 H7         12.1799   10.1605    5.9804 H           1 SRO       0.0399
     21 H8         10.8876    8.9947    5.7251 H           1 SRO       0.0399
     22 H9         13.0133    8.4908    4.4610 H           1 SRO       0.0828
     23 H10        12.4245    7.1556    5.4546 H           1 SRO       0.0828
     24 H11        14.8243    7.5727    5.5189 H           1 SRO       0.1995
     25 H12        14.0886    7.5238    7.0052 H           1 SRO       0.1995
     26 H13        14.5469    8.9983    6.3428 H           1 SRO       0.1995
@<TRIPOS>BOND
     1     1     2   1
     2     2     3  ar
     3     2    10  ar
     4     3     4  ar
     5     4     5  ar
     6     5     6   1
     7     5     9  ar
     8     6     7   1
     9     7     8   2
    10     8     9   1
    11     8    11   1
    12     9    10  ar
    13    11    12   1
    14    12    13   1
    15     1    14   1
    16     3    15   1
    17     4    16   1
    18     6    17   1
    19     7    18   1
    20    10    19   1
    21    11    20   1
    22    11    21   1
    23    12    22   1
    24    12    23   1
    25    13    24   1
    26    13    25   1
    27    13    26   1
@<TRIPOS>SUBSTRUCTURE
     1  SRO      2

