@<TRIPOS>MOLECULE
2ymd_ligand_007
    26    27
SMALL
GAST_HUCK
****
This file was generated by PARSER (from files_GN.cpp)

@<TRIPOS>ATOM
      1 OH          6.4469    8.0062    4.6249 O.3         1 SRO      -0.3421
      2 CZ3         5.9794    8.7294    5.6662 C.ar        1 SRO       0.0693
      3 CH2         6.5319    8.5703    6.9569 C.ar        1 SRO      -0.0459
      4 CZ2         6.0253    9.3092    8.0455 C.ar        1 SRO      -0.0495
      5 CE2         4.9846   10.2236    7.8141 C.ar        1 SRO       0.0512
      6 NE1         4.3429   11.0407    8.6622 N.pl3       1 SRO      -0.2936
      7 CD1         3.4166   11.7412    7.9829 C.2         1 SRO       0.0142
      8 CG          3.4519   11.3653    6.6374 C.2         1 SRO      -0.0452
      9 CD2         4.4495   10.3982    6.5373 C.ar        1 SRO      -0.0312
     10 CE3         4.9376    9.6544    5.4476 C.ar        1 SRO      -0.0489
     11 CB          2.6117   11.8938    5.5402 C.3         1 SRO       0.0032
     12 CA          3.2696   13.0804    4.7918 C.3         1 SRO      -0.0314
     13 NZ          4.5950   12.7765    4.2340 N.4         1 SRO       0.2194
     14 H1          6.5122    7.0845    4.9579 H           1 SRO       0.2441
     15 H2          7.3041    7.9174    7.1033 H           1 SRO       0.0481
     16 H3          6.4061    9.1831    8.9826 H           1 SRO       0.0526
     17 H4          4.5235   11.1112    9.6123 H           1 SRO       0.2193
     18 H5          2.7911   12.4357    8.3956 H           1 SRO       0.0790
     19 H6          4.5425    9.7779    4.5149 H           1 SRO       0.0435
     20 H7          1.6560   12.2288    5.9525 H           1 SRO       0.0399
     21 H8          2.3902   11.0922    4.8311 H           1 SRO       0.0399
     22 H9          3.3739   13.9282    5.4724 H           1 SRO       0.0828
     23 H10         2.6197   13.3834    3.9687 H           1 SRO       0.0828
     24 H11         4.9190   13.5736    3.6819 H           1 SRO       0.1995
     25 H12         4.5473   11.9489    3.6348 H           1 SRO       0.1995
     26 H13         5.2556   12.6113    4.9969 H           1 SRO       0.1995
@<TRIPOS>BOND
     1     1     2   1
     2     2     3  ar
     3     2    10  ar
     4     3     4  ar
     5     4     5  ar
     6     5     6   1
     7     5     9  ar
     8     6     7   1
     9     7     8   2
    10     8     9   1
    11     8    11   1
    12     9    10  ar
    13    11    12   1
    14    12    13   1
    15     1    14   1
    16     3    15   1
    17     4    16   1
    18     6    17   1
    19     7    18   1
    20    10    19   1
    21    11    20   1
    22    11    21   1
    23    12    22   1
    24    12    23   1
    25    13    24   1
    26    13    25   1
    27    13    26   1
@<TRIPOS>SUBSTRUCTURE
     1  SRO      2

