@<TRIPOS>MOLECULE
2ymd_ligand_014
    26    27
SMALL
GAST_HUCK
****
This file was generated by PARSER (from files_GN.cpp)

@<TRIPOS>ATOM
      1 OH          4.6571   11.1103    8.1871 O.3         1 SRO      -0.3421
      2 CZ3         5.1674   10.1218    7.4141 C.ar        1 SRO       0.0693
      3 CH2         4.4044    9.5987    6.3444 C.ar        1 SRO      -0.0459
      4 CZ2         4.9242    8.5656    5.5375 C.ar        1 SRO      -0.0495
      5 CE2         6.2054    8.0696    5.8214 C.ar        1 SRO       0.0512
      6 NE1         6.9005    7.0958    5.2164 N.pl3       1 SRO      -0.2936
      7 CD1         8.0890    6.9616    5.8256 C.2         1 SRO       0.0142
      8 CG          8.1780    7.8803    6.8757 C.2         1 SRO      -0.0452
      9 CD2         6.9723    8.5850    6.8696 C.ar        1 SRO      -0.0312
     10 CE3         6.4624    9.6216    7.6782 C.ar        1 SRO      -0.0489
     11 CB          9.3444    8.0598    7.7679 C.3         1 SRO       0.0032
     12 CA          9.5964    6.8411    8.6863 C.3         1 SRO      -0.0314
     13 NZ         10.3660    5.7843    8.0141 N.4         1 SRO       0.2194
     14 H1          4.8475   11.9325    7.6890 H           1 SRO       0.2441
     15 H2          3.4690    9.9702    6.1514 H           1 SRO       0.0481
     16 H3          4.3748    8.1833    4.7643 H           1 SRO       0.0526
     17 H4          6.5896    6.5709    4.4620 H           1 SRO       0.2193
     18 H5          8.8076    6.2856    5.5595 H           1 SRO       0.0790
     19 H6          7.0114   10.0021    8.4479 H           1 SRO       0.0435
     20 H7          9.1891    8.9428    8.3899 H           1 SRO       0.0399
     21 H8         10.2382    8.2512    7.1665 H           1 SRO       0.0399
     22 H9          8.6478    6.4231    9.0324 H           1 SRO       0.0828
     23 H10        10.1696    7.1621    9.5587 H           1 SRO       0.0828
     24 H11        10.5200    5.0086    8.6632 H           1 SRO       0.1995
     25 H12        11.2717    6.1556    7.7157 H           1 SRO       0.1995
     26 H13         9.8521    5.4467    7.1989 H           1 SRO       0.1995
@<TRIPOS>BOND
     1     1     2   1
     2     2     3  ar
     3     2    10  ar
     4     3     4  ar
     5     4     5  ar
     6     5     6   1
     7     5     9  ar
     8     6     7   1
     9     7     8   2
    10     8     9   1
    11     8    11   1
    12     9    10  ar
    13    11    12   1
    14    12    13   1
    15     1    14   1
    16     3    15   1
    17     4    16   1
    18     6    17   1
    19     7    18   1
    20    10    19   1
    21    11    20   1
    22    11    21   1
    23    12    22   1
    24    12    23   1
    25    13    24   1
    26    13    25   1
    27    13    26   1
@<TRIPOS>SUBSTRUCTURE
     1  SRO      2

