@<TRIPOS>MOLECULE
2ymd_ligand_010
    26    27
SMALL
GAST_HUCK
****
This file was generated by PARSER (from files_GN.cpp)

@<TRIPOS>ATOM
      1 OH          1.0208   11.6609    5.5490 O.3         1 SRO      -0.3421
      2 CZ3         2.1339   11.4118    6.2807 C.ar        1 SRO       0.0693
      3 CH2         2.3334   12.0809    7.5110 C.ar        1 SRO      -0.0459
      4 CZ2         3.4856   11.8228    8.2806 C.ar        1 SRO      -0.0495
      5 CE2         4.4173   10.8867    7.8053 C.ar        1 SRO       0.0512
      6 NE1         5.5616   10.4608    8.3601 N.pl3       1 SRO      -0.2936
      7 CD1         6.1133    9.5315    7.5618 C.2         1 SRO       0.0142
      8 CG          5.2994    9.3397    6.4428 C.2         1 SRO      -0.0452
      9 CD2         4.2208   10.2120    6.5985 C.ar        1 SRO      -0.0312
     10 CE3         3.0814   10.4762    5.8143 C.ar        1 SRO      -0.0489
     11 CB          5.5425    8.3818    5.3431 C.3         1 SRO       0.0032
     12 CA          4.8328    7.0202    5.5355 C.3         1 SRO      -0.0314
     13 NZ          3.3814    7.1177    5.3639 N.4         1 SRO       0.2194
     14 H1          1.1929   12.5389    5.1331 H           1 SRO       0.2441
     15 H2          1.6432   12.7549    7.8487 H           1 SRO       0.0481
     16 H3          3.6378   12.2953    9.1724 H           1 SRO       0.0526
     17 H4          5.9217   10.7595    9.2082 H           1 SRO       0.2193
     18 H5          6.9857    9.0370    7.7573 H           1 SRO       0.0790
     19 H6          2.9361    9.9961    4.9258 H           1 SRO       0.0435
     20 H7          6.6159    8.2011    5.2658 H           1 SRO       0.0399
     21 H8          5.2187    8.8311    4.4022 H           1 SRO       0.0399
     22 H9          5.0288    6.6281    6.5314 H           1 SRO       0.0828
     23 H10         5.2110    6.3077    4.8019 H           1 SRO       0.0828
     24 H11         2.9660    6.1860    5.4506 H           1 SRO       0.1995
     25 H12         3.1606    7.5024    4.4422 H           1 SRO       0.1995
     26 H13         2.9938    7.7285    6.0871 H           1 SRO       0.1995
@<TRIPOS>BOND
     1     1     2   1
     2     2     3  ar
     3     2    10  ar
     4     3     4  ar
     5     4     5  ar
     6     5     6   1
     7     5     9  ar
     8     6     7   1
     9     7     8   2
    10     8     9   1
    11     8    11   1
    12     9    10  ar
    13    11    12   1
    14    12    13   1
    15     1    14   1
    16     3    15   1
    17     4    16   1
    18     6    17   1
    19     7    18   1
    20    10    19   1
    21    11    20   1
    22    11    21   1
    23    12    22   1
    24    12    23   1
    25    13    24   1
    26    13    25   1
    27    13    26   1
@<TRIPOS>SUBSTRUCTURE
     1  SRO      2

