@<TRIPOS>MOLECULE
2ymd_ligand_015
    26    27
SMALL
GAST_HUCK
****
This file was generated by PARSER (from files_GN.cpp)

@<TRIPOS>ATOM
      1 OH          7.1136    8.3112    5.6068 O.3         1 SRO      -0.3421
      2 CZ3         8.0819    7.5071    6.1046 C.ar        1 SRO       0.0693
      3 CH2         8.0958    6.1333    5.7801 C.ar        1 SRO      -0.0459
      4 CZ2         9.1240    5.2918    6.2543 C.ar        1 SRO      -0.0495
      5 CE2        10.1102    5.8416    7.0889 C.ar        1 SRO       0.0512
      6 NE1        11.1752    5.2620    7.6623 N.pl3       1 SRO      -0.2936
      7 CD1        11.8321    6.1848    8.3846 C.2         1 SRO       0.0142
      8 CG         11.1980    7.4210    8.2555 C.2         1 SRO      -0.0452
      9 CD2        10.0898    7.1941    7.4382 C.ar        1 SRO      -0.0312
     10 CE3         9.0798    8.0438    6.9450 C.ar        1 SRO      -0.0489
     11 CB         11.6543    8.7030    8.8366 C.3         1 SRO       0.0032
     12 CA         12.7402    9.3988    7.9787 C.3         1 SRO      -0.0314
     13 NZ         14.0311    8.7021    8.0306 N.4         1 SRO       0.2194
     14 H1          6.3556    8.1874    6.2188 H           1 SRO       0.2441
     15 H2          7.3583    5.7442    5.1943 H           1 SRO       0.0481
     16 H3          9.1441    4.2981    6.0127 H           1 SRO       0.0526
     17 H4         11.4449    4.3365    7.5425 H           1 SRO       0.2193
     18 H5         12.6780    6.0078    8.9171 H           1 SRO       0.0790
     19 H6          9.0711    9.0356    7.1858 H           1 SRO       0.0435
     20 H7         12.0332    8.5328    9.8462 H           1 SRO       0.0399
     21 H8         10.8025    9.3770    8.9176 H           1 SRO       0.0399
     22 H9         12.9009   10.4102    8.3610 H           1 SRO       0.0828
     23 H10        12.4189    9.4746    6.9359 H           1 SRO       0.0828
     24 H11        14.7132    9.1980    7.4545 H           1 SRO       0.1995
     25 H12        13.9324    7.7449    7.6876 H           1 SRO       0.1995
     26 H13        14.3591    8.6795    8.9961 H           1 SRO       0.1995
@<TRIPOS>BOND
     1     1     2   1
     2     2     3  ar
     3     2    10  ar
     4     3     4  ar
     5     4     5  ar
     6     5     6   1
     7     5     9  ar
     8     6     7   1
     9     7     8   2
    10     8     9   1
    11     8    11   1
    12     9    10  ar
    13    11    12   1
    14    12    13   1
    15     1    14   1
    16     3    15   1
    17     4    16   1
    18     6    17   1
    19     7    18   1
    20    10    19   1
    21    11    20   1
    22    11    21   1
    23    12    22   1
    24    12    23   1
    25    13    24   1
    26    13    25   1
    27    13    26   1
@<TRIPOS>SUBSTRUCTURE
     1  SRO      2

