@<TRIPOS>MOLECULE
2ymd_ligand_018
    26    27
SMALL
GAST_HUCK
****
This file was generated by PARSER (from files_GN.cpp)

@<TRIPOS>ATOM
      1 OH          8.9247    8.5478    7.5297 O.3         1 SRO      -0.3421
      2 CZ3         7.7073    8.5445    6.9402 C.ar        1 SRO       0.0693
      3 CH2         7.3587    7.5169    6.0349 C.ar        1 SRO      -0.0459
      4 CZ2         6.0925    7.5055    5.4181 C.ar        1 SRO      -0.0495
      5 CE2         5.1934    8.5421    5.7132 C.ar        1 SRO       0.0512
      6 NE1         3.9486    8.7599    5.2715 N.pl3       1 SRO      -0.2936
      7 CD1         3.4644    9.8782    5.8390 C.2         1 SRO       0.0142
      8 CG          4.4299   10.4147    6.6902 C.2         1 SRO      -0.0452
      9 CD2         5.5324    9.5649    6.6027 C.ar        1 SRO      -0.0312
     10 CE3         6.7895    9.5747    7.2339 C.ar        1 SRO      -0.0489
     11 CB          4.2786   11.6290    7.5200 C.3         1 SRO       0.0032
     12 CA          3.4816   11.3908    8.8213 C.3         1 SRO      -0.0314
     13 NZ          4.0972   10.3554    9.6619 N.4         1 SRO       0.2194
     14 H1          9.5623    8.6402    6.7915 H           1 SRO       0.2441
     15 H2          8.0222    6.7665    5.8379 H           1 SRO       0.0481
     16 H3          5.8317    6.7606    4.7716 H           1 SRO       0.0526
     17 H4          3.4485    8.2031    4.6592 H           1 SRO       0.2193
     18 H5          2.5284   10.2628    5.6818 H           1 SRO       0.0790
     19 H6          7.0380   10.3182    7.8893 H           1 SRO       0.0435
     20 H7          3.7840   12.4053    6.9288 H           1 SRO       0.0399
     21 H8          5.2629   12.0039    7.7894 H           1 SRO       0.0399
     22 H9          2.4517   11.1123    8.5912 H           1 SRO       0.0828
     23 H10         3.4591   12.3184    9.3891 H           1 SRO       0.0828
     24 H11         3.5481   10.2368   10.5140 H           1 SRO       0.1995
     25 H12         5.0504   10.6352    9.9012 H           1 SRO       0.1995
     26 H13         4.1303    9.4682    9.1540 H           1 SRO       0.1995
@<TRIPOS>BOND
     1     1     2   1
     2     2     3  ar
     3     2    10  ar
     4     3     4  ar
     5     4     5  ar
     6     5     6   1
     7     5     9  ar
     8     6     7   1
     9     7     8   2
    10     8     9   1
    11     8    11   1
    12     9    10  ar
    13    11    12   1
    14    12    13   1
    15     1    14   1
    16     3    15   1
    17     4    16   1
    18     6    17   1
    19     7    18   1
    20    10    19   1
    21    11    20   1
    22    11    21   1
    23    12    22   1
    24    12    23   1
    25    13    24   1
    26    13    25   1
    27    13    26   1
@<TRIPOS>SUBSTRUCTURE
     1  SRO      2

