@<TRIPOS>MOLECULE
2ymd_ligand_022
    26    27
SMALL
GAST_HUCK
****
This file was generated by PARSER (from files_GN.cpp)

@<TRIPOS>ATOM
      1 OH          9.8974    6.6054    6.8654 O.3         1 SRO      -0.3421
      2 CZ3         8.9118    7.2251    7.5620 C.ar        1 SRO       0.0693
      3 CH2         8.7597    6.9540    8.9417 C.ar        1 SRO      -0.0459
      4 CZ2         7.7487    7.5917    9.6899 C.ar        1 SRO      -0.0495
      5 CE2         6.8996    8.4996    9.0343 C.ar        1 SRO       0.0512
      6 NE1         5.8987    9.2550    9.5191 N.pl3       1 SRO      -0.2936
      7 CD1         5.4084   10.0174    8.5319 C.2         1 SRO       0.0142
      8 CG          6.0724    9.7213    7.3410 C.2         1 SRO      -0.0452
      9 CD2         7.0320    8.7613    7.6669 C.ar        1 SRO      -0.0312
     10 CE3         8.0378    8.1216    6.9149 C.ar        1 SRO      -0.0489
     11 CB          5.8487   10.3712    6.0290 C.3         1 SRO       0.0032
     12 CA          4.3759   10.4123    5.5669 C.3         1 SRO      -0.0314
     13 NZ          3.8025    9.0692    5.4717 N.4         1 SRO       0.2194
     14 H1         10.5765    7.2962    6.7250 H           1 SRO       0.2441
     15 H2          9.4093    6.3186    9.4084 H           1 SRO       0.0481
     16 H3          7.6396    7.3921   10.6869 H           1 SRO       0.0526
     17 H4          5.6067    9.2879   10.4432 H           1 SRO       0.2193
     18 H5          4.6694   10.7152    8.6501 H           1 SRO       0.0790
     19 H6          8.1393    8.3069    5.9177 H           1 SRO       0.0435
     20 H7          6.4189    9.8440    5.2732 H           1 SRO       0.0399
     21 H8          6.2289   11.3944    6.0760 H           1 SRO       0.0399
     22 H9          4.3188   10.8795    4.5817 H           1 SRO       0.0828
     23 H10         3.7797   11.0010    6.2665 H           1 SRO       0.0828
     24 H11         2.8439    9.1240    5.1424 H           1 SRO       0.1995
     25 H12         3.7831    8.6305    6.3901 H           1 SRO       0.1995
     26 H13         4.3512    8.5021    4.8250 H           1 SRO       0.1995
@<TRIPOS>BOND
     1     1     2   1
     2     2     3  ar
     3     2    10  ar
     4     3     4  ar
     5     4     5  ar
     6     5     6   1
     7     5     9  ar
     8     6     7   1
     9     7     8   2
    10     8     9   1
    11     8    11   1
    12     9    10  ar
    13    11    12   1
    14    12    13   1
    15     1    14   1
    16     3    15   1
    17     4    16   1
    18     6    17   1
    19     7    18   1
    20    10    19   1
    21    11    20   1
    22    11    21   1
    23    12    22   1
    24    12    23   1
    25    13    24   1
    26    13    25   1
    27    13    26   1
@<TRIPOS>SUBSTRUCTURE
     1  SRO      2

