@<TRIPOS>MOLECULE
2ymd_ligand_004
    26    27
SMALL
GAST_HUCK
****
This file was generated by PARSER (from files_GN.cpp)

@<TRIPOS>ATOM
      1 OH          8.7373    7.0064   10.0069 O.3         1 SRO      -0.3421
      2 CZ3         9.4896    6.7503    8.9112 C.ar        1 SRO       0.0693
      3 CH2         9.4415    5.4637    8.3267 C.ar        1 SRO      -0.0459
      4 CZ2        10.2258    5.1558    7.1971 C.ar        1 SRO      -0.0495
      5 CE2        11.0460    6.1625    6.6628 C.ar        1 SRO       0.0512
      6 NE1        11.8777    6.1238    5.6146 N.pl3       1 SRO      -0.2936
      7 CD1        12.4274    7.3374    5.4592 C.2         1 SRO       0.0142
      8 CG         11.9544    8.2026    6.4443 C.2         1 SRO      -0.0452
      9 CD2        11.0789    7.4449    7.2186 C.ar        1 SRO      -0.0312
     10 CE3        10.3096    7.7553    8.3525 C.ar        1 SRO      -0.0489
     11 CB         12.3604    9.6160    6.6094 C.3         1 SRO       0.0032
     12 CA         13.2967    9.8569    7.8156 C.3         1 SRO      -0.0314
     13 NZ         14.4563    8.9544    7.8239 N.4         1 SRO       0.2194
     14 H1          9.3220    7.5117   10.6106 H           1 SRO       0.2441
     15 H2          8.8405    4.7447    8.7323 H           1 SRO       0.0481
     16 H3         10.1988    4.2281    6.7707 H           1 SRO       0.0526
     17 H4         12.0585    5.3501    5.0586 H           1 SRO       0.2193
     18 H5         13.1077    7.5803    4.7452 H           1 SRO       0.0790
     19 H6         10.3347    8.6946    8.7541 H           1 SRO       0.0435
     20 H7         11.4604   10.2251    6.7173 H           1 SRO       0.0399
     21 H8         12.8828    9.9531    5.7096 H           1 SRO       0.0399
     22 H9         12.7515    9.7300    8.7515 H           1 SRO       0.0828
     23 H10        13.6658   10.8865    7.7815 H           1 SRO       0.0828
     24 H11        15.0374    9.1851    8.6289 H           1 SRO       0.1995
     25 H12        15.0038    9.0736    6.9681 H           1 SRO       0.1995
     26 H13        14.1517    7.9763    7.8916 H           1 SRO       0.1995
@<TRIPOS>BOND
     1     1     2   1
     2     2     3  ar
     3     2    10  ar
     4     3     4  ar
     5     4     5  ar
     6     5     6   1
     7     5     9  ar
     8     6     7   1
     9     7     8   2
    10     8     9   1
    11     8    11   1
    12     9    10  ar
    13    11    12   1
    14    12    13   1
    15     1    14   1
    16     3    15   1
    17     4    16   1
    18     6    17   1
    19     7    18   1
    20    10    19   1
    21    11    20   1
    22    11    21   1
    23    12    22   1
    24    12    23   1
    25    13    24   1
    26    13    25   1
    27    13    26   1
@<TRIPOS>SUBSTRUCTURE
     1  SRO      2

