@<TRIPOS>MOLECULE
2ymd_ligand_001
    26    27
SMALL
GAST_HUCK
****
This file was generated by PARSER (from files_GN.cpp)

@<TRIPOS>ATOM
      1 OH         15.3483    9.4276    5.8388 O.3         1 SRO      -0.3421
      2 CZ3        14.3933    9.2243    6.7862 C.ar        1 SRO       0.0693
      3 CH2        14.5805    9.7656    8.0787 C.ar        1 SRO      -0.0459
      4 CZ2        13.6174    9.5629    9.0882 C.ar        1 SRO      -0.0495
      5 CE2        12.4690    8.8138    8.7810 C.ar        1 SRO       0.0512
      6 NE1        11.4313    8.4723    9.5585 N.pl3       1 SRO      -0.2936
      7 CD1        10.5629    7.7463    8.8369 C.2         1 SRO       0.0142
      8 CG         11.0433    7.6111    7.5331 C.2         1 SRO      -0.0452
      9 CD2        12.2656    8.2853    7.5032 C.ar        1 SRO      -0.0312
     10 CE3        13.2235    8.4852    6.4895 C.ar        1 SRO      -0.0489
     11 CB         10.3592    6.8746    6.4464 C.3         1 SRO       0.0032
     12 CA         10.7664    5.3828    6.3862 C.3         1 SRO      -0.0314
     13 NZ         12.1061    5.2115    5.8141 N.4         1 SRO       0.2194
     14 H1         15.2013    8.7418    5.1574 H           1 SRO       0.2441
     15 H2         15.4247   10.3033    8.2882 H           1 SRO       0.0481
     16 H3         13.7518    9.9495   10.0251 H           1 SRO       0.0526
     17 H4         11.3158    8.7027   10.4929 H           1 SRO       0.2193
     18 H5          9.6914    7.3536    9.1984 H           1 SRO       0.0790
     19 H6         13.0780    8.0963    5.5548 H           1 SRO       0.0435
     20 H7         10.5657    7.3512    5.4851 H           1 SRO       0.0399
     21 H8          9.2789    6.9342    6.6062 H           1 SRO       0.0399
     22 H9         10.0557    4.8349    5.7642 H           1 SRO       0.0828
     23 H10        10.7513    4.9382    7.3832 H           1 SRO       0.0828
     24 H11        12.3297    4.2159    5.7806 H           1 SRO       0.1995
     25 H12        12.7933    5.6876    6.3997 H           1 SRO       0.1995
     26 H13        12.1355    5.6008    4.8680 H           1 SRO       0.1995
@<TRIPOS>BOND
     1     1     2   1
     2     2     3  ar
     3     2    10  ar
     4     3     4  ar
     5     4     5  ar
     6     5     6   1
     7     5     9  ar
     8     6     7   1
     9     7     8   2
    10     8     9   1
    11     8    11   1
    12     9    10  ar
    13    11    12   1
    14    12    13   1
    15     1    14   1
    16     3    15   1
    17     4    16   1
    18     6    17   1
    19     7    18   1
    20    10    19   1
    21    11    20   1
    22    11    21   1
    23    12    22   1
    24    12    23   1
    25    13    24   1
    26    13    25   1
    27    13    26   1
@<TRIPOS>SUBSTRUCTURE
     1  SRO      2

