@<TRIPOS>MOLECULE
2zcq_ligand_015
    41    42
SMALL
GAST_HUCK
****
This file was generated by PARSER (from files_GN.cpp)

@<TRIPOS>ATOM
      1 CAL        17.0371   50.4718   40.9087 C.ar        1 B65      -0.0285
      2 CAH        15.9602   50.9387   41.6917 C.ar        1 B65      -0.0697
      3 CAG        14.8965   51.6304   41.0799 C.ar        1 B65      -0.0723
      4 CAI        14.8931   51.8244   39.6827 C.ar        1 B65      -0.0697
      5 CAM        15.9581   51.3375   38.9042 C.ar        1 B65      -0.0285
      6 CAU        17.0482   50.6765   39.5157 C.ar        1 B65       0.1159
      7 OAS        18.1595   50.3122   38.8006 O.3         1 B65      -0.2597
      8 CAV        18.7855   51.3204   38.0991 C.ar        1 B65       0.1094
      9 CAO        18.9922   52.6306   38.6043 C.ar        1 B65      -0.0276
     10 CAN        19.2515   51.0247   36.7999 C.ar        1 B65      -0.0354
     11 CAJ        19.8551   52.0209   36.0111 C.ar        1 B65      -0.0762
     12 CAK        20.0437   53.3215   36.5308 C.ar        1 B65      -0.0708
     13 CAT        19.6411   53.6343   37.8526 C.ar        1 B65      -0.0509
     14 CAQ        19.7901   55.0276   38.3895 C.3         1 B65      -0.0214
     15 CAP        20.1478   55.1546   39.9116 C.3         1 B65      -0.0405
     16 CAR        21.4432   55.9555   40.2797 C.3         1 B65      -0.0165
     17 CAW        22.3894   55.2025   41.2784 C.3         1 B65       0.1121
     18 PAX        23.5103   56.1850   42.0344 P.3         1 B65       0.0795
     19 OAB        24.2978   55.4536   42.9948 O.co2       1 B65      -0.5610
     20 OAC        24.4306   56.7497   41.0797 O.co2       1 B65      -0.5610
     21 OAA        22.9305   57.2957   42.7505 O.co2       1 B65      -0.5610
     22 SAY        23.2006   53.7619   40.5016 S.o2        1 B65      -0.1731
     23 OAF        23.3391   52.5209   41.6441 O.co2       1 B65      -0.4830
     24 OAE        24.7433   54.1463   39.9272 O.co2       1 B65      -0.4830
     25 OAD        22.3012   53.1788   39.1919 O.co2       1 B65      -0.4830
     26 H1         17.8206   50.0099   41.3692 H           1 B65       0.0552
     27 H2         15.9612   50.7939   42.7038 H           1 B65       0.0590
     28 H3         14.1211   51.9860   41.6489 H           1 B65       0.0528
     29 H4         14.1221   52.3375   39.2402 H           1 B65       0.0590
     30 H5         15.9583   51.5033   37.8980 H           1 B65       0.0552
     31 H6         18.6400   52.8530   39.5352 H           1 B65       0.0488
     32 H7         19.1224   50.0850   36.4132 H           1 B65       0.0496
     33 H8         20.1360   51.8098   35.0492 H           1 B65       0.0573
     34 H9         20.4675   54.0302   35.9280 H           1 B65       0.0470
     35 H10        18.8319   55.5283   38.2144 H           1 B65       0.0424
     36 H11        20.5178   55.5794   37.7877 H           1 B65       0.0424
     37 H12        20.2004   54.1648   40.3673 H           1 B65       0.0288
     38 H13        19.2991   55.6426   40.4071 H           1 B65       0.0288
     39 H14        21.1141   56.8998   40.7278 H           1 B65       0.0298
     40 H15        22.0175   56.2150   39.3848 H           1 B65       0.0298
     41 H16        21.7713   54.7985   42.0818 H           1 B65       0.0695
@<TRIPOS>BOND
     1     1     2  ar
     2     1     6  ar
     3     2     3  ar
     4     3     4  ar
     5     4     5  ar
     6     5     6  ar
     7     6     7   1
     8     7     8   1
     9     8     9  ar
    10     8    10  ar
    11     9    13  ar
    12    10    11  ar
    13    11    12  ar
    14    12    13  ar
    15    13    14   1
    16    14    15   1
    17    15    16   1
    18    16    17   1
    19    17    18   1
    20    17    22   1
    21    18    19  ar
    22    18    20  ar
    23    18    21  ar
    24    22    23  ar
    25    22    24  ar
    26    22    25  ar
    27     1    26   1
    28     2    27   1
    29     3    28   1
    30     4    29   1
    31     5    30   1
    32     9    31   1
    33    10    32   1
    34    11    33   1
    35    12    34   1
    36    14    35   1
    37    14    36   1
    38    15    37   1
    39    15    38   1
    40    16    39   1
    41    16    40   1
    42    17    41   1
@<TRIPOS>SUBSTRUCTURE
     1  B65      1

