@<TRIPOS>MOLECULE
2zcq_ligand_024
    41    42
SMALL
GAST_HUCK
****
This file was generated by PARSER (from files_GN.cpp)

@<TRIPOS>ATOM
      1 CAL        30.3094   44.5199   38.0188 C.ar        1 B65      -0.0285
      2 CAH        31.4681   43.7384   37.8647 C.ar        1 B65      -0.0697
      3 CAG        31.4210   42.5440   37.1239 C.ar        1 B65      -0.0723
      4 CAI        30.2062   42.1237   36.5466 C.ar        1 B65      -0.0697
      5 CAM        29.0435   42.9073   36.7040 C.ar        1 B65      -0.0285
      6 CAU        29.0945   44.1214   37.4252 C.ar        1 B65       0.1159
      7 OAS        27.9570   44.8737   37.5531 O.3         1 B65      -0.2597
      8 CAV        27.8373   45.8195   36.5724 C.ar        1 B65       0.1094
      9 CAO        28.0309   47.1839   36.8984 C.ar        1 B65      -0.0276
     10 CAN        27.3987   45.4843   35.2708 C.ar        1 B65      -0.0354
     11 CAJ        27.3205   46.4724   34.2694 C.ar        1 B65      -0.0762
     12 CAK        27.5877   47.8163   34.5851 C.ar        1 B65      -0.0708
     13 CAT        27.8954   48.1986   35.9170 C.ar        1 B65      -0.0509
     14 CAQ        27.9693   49.6305   36.2917 C.3         1 B65      -0.0214
     15 CAP        26.7260   50.4418   35.8063 C.3         1 B65      -0.0405
     16 CAR        26.0716   51.4204   36.8247 C.3         1 B65      -0.0165
     17 CAW        25.5279   50.8860   38.2091 C.3         1 B65       0.1121
     18 PAX        25.0164   49.2882   38.2474 P.3         1 B65       0.0795
     19 OAB        26.1933   48.4444   38.2094 O.co2       1 B65      -0.5610
     20 OAC        24.3680   48.9339   39.4854 O.co2       1 B65      -0.5610
     21 OAA        24.1820   48.9143   37.1251 O.co2       1 B65      -0.5610
     22 SAY        24.2150   52.0189   38.8024 S.o2        1 B65      -0.1731
     23 OAF        23.0263   51.2233   39.7197 O.co2       1 B65      -0.4830
     24 OAE        23.4571   52.7998   37.5025 O.co2       1 B65      -0.4830
     25 OAD        24.9371   53.1765   39.8247 O.co2       1 B65      -0.4830
     26 H1         30.3538   45.3877   38.5597 H           1 B65       0.0552
     27 H2         32.3519   44.0385   38.2909 H           1 B65       0.0590
     28 H3         32.2641   41.9751   37.0098 H           1 B65       0.0528
     29 H4         30.1694   41.2514   36.0165 H           1 B65       0.0590
     30 H5         28.1676   42.5926   36.2870 H           1 B65       0.0552
     31 H6         28.3044   47.4215   37.8549 H           1 B65       0.0488
     32 H7         27.1774   44.5117   35.0394 H           1 B65       0.0496
     33 H8         27.0520   46.2071   33.3122 H           1 B65       0.0573
     34 H9         27.4929   48.5201   33.8508 H           1 B65       0.0470
     35 H10        28.8761   50.0471   35.8376 H           1 B65       0.0424
     36 H11        28.0767   49.7415   37.3782 H           1 B65       0.0424
     37 H12        25.9413   49.7761   35.4395 H           1 B65       0.0288
     38 H13        27.0379   51.0383   34.9453 H           1 B65       0.0288
     39 H14        25.2313   51.8671   36.2839 H           1 B65       0.0298
     40 H15        26.7839   52.2309   37.0362 H           1 B65       0.0298
     41 H16        26.3420   50.9593   38.9330 H           1 B65       0.0695
@<TRIPOS>BOND
     1     1     2  ar
     2     1     6  ar
     3     2     3  ar
     4     3     4  ar
     5     4     5  ar
     6     5     6  ar
     7     6     7   1
     8     7     8   1
     9     8     9  ar
    10     8    10  ar
    11     9    13  ar
    12    10    11  ar
    13    11    12  ar
    14    12    13  ar
    15    13    14   1
    16    14    15   1
    17    15    16   1
    18    16    17   1
    19    17    18   1
    20    17    22   1
    21    18    19  ar
    22    18    20  ar
    23    18    21  ar
    24    22    23  ar
    25    22    24  ar
    26    22    25  ar
    27     1    26   1
    28     2    27   1
    29     3    28   1
    30     4    29   1
    31     5    30   1
    32     9    31   1
    33    10    32   1
    34    11    33   1
    35    12    34   1
    36    14    35   1
    37    14    36   1
    38    15    37   1
    39    15    38   1
    40    16    39   1
    41    16    40   1
    42    17    41   1
@<TRIPOS>SUBSTRUCTURE
     1  B65      1

