@<TRIPOS>MOLECULE
2zcq_ligand_038
    41    42
SMALL
GAST_HUCK
****
This file was generated by PARSER (from files_GN.cpp)

@<TRIPOS>ATOM
      1 CAL        28.2798   44.8924   45.3272 C.ar        1 B65      -0.0285
      2 CAH        28.3790   45.1371   46.7102 C.ar        1 B65      -0.0697
      3 CAG        29.1221   46.2352   47.1787 C.ar        1 B65      -0.0723
      4 CAI        29.7733   47.0861   46.2674 C.ar        1 B65      -0.0697
      5 CAM        29.6764   46.8403   44.8845 C.ar        1 B65      -0.0285
      6 CAU        28.9109   45.7557   44.4037 C.ar        1 B65       0.1159
      7 OAS        28.8269   45.5269   43.0540 O.3         1 B65      -0.2597
      8 CAV        27.7089   46.1036   42.5091 C.ar        1 B65       0.1094
      9 CAO        27.6665   47.4845   42.2253 C.ar        1 B65      -0.0276
     10 CAN        26.5927   45.3017   42.1952 C.ar        1 B65      -0.0354
     11 CAJ        25.4334   45.8833   41.6533 C.ar        1 B65      -0.0762
     12 CAK        25.3816   47.2702   41.4182 C.ar        1 B65      -0.0708
     13 CAT        26.4997   48.0915   41.6973 C.ar        1 B65      -0.0509
     14 CAQ        26.4435   49.5648   41.4918 C.3         1 B65      -0.0214
     15 CAP        26.6334   50.0155   40.0148 C.3         1 B65      -0.0405
     16 CAR        25.4419   49.6713   39.0680 C.3         1 B65      -0.0165
     17 CAW        25.1378   50.7179   37.9440 C.3         1 B65       0.1121
     18 PAX        24.4929   52.1573   38.5174 P.3         1 B65       0.0795
     19 OAB        23.3053   51.9337   39.3006 O.co2       1 B65      -0.5610
     20 OAC        25.4167   52.8874   39.3476 O.co2       1 B65      -0.5610
     21 OAA        24.0744   53.0590   37.4717 O.co2       1 B65      -0.5610
     22 SAY        23.9979   50.0113   36.7164 S.o2        1 B65      -0.1731
     23 OAF        22.4222   50.1764   37.3054 O.co2       1 B65      -0.4830
     24 OAE        24.3556   48.3820   36.4364 O.co2       1 B65      -0.4830
     25 OAD        24.1498   50.8269   35.2427 O.co2       1 B65      -0.4830
     26 H1         27.7390   44.0935   44.9918 H           1 B65       0.0552
     27 H2         27.9103   44.5153   47.3728 H           1 B65       0.0590
     28 H3         29.1909   46.4151   48.1840 H           1 B65       0.0528
     29 H4         30.3164   47.8829   46.6084 H           1 B65       0.0590
     30 H5         30.1549   47.4613   44.2277 H           1 B65       0.0552
     31 H6         28.4872   48.0564   42.4338 H           1 B65       0.0488
     32 H7         26.6204   44.2958   42.3755 H           1 B65       0.0496
     33 H8         24.6212   45.3011   41.4449 H           1 B65       0.0573
     34 H9         24.5148   47.6736   41.0589 H           1 B65       0.0470
     35 H10        27.2304   50.0469   42.0789 H           1 B65       0.0424
     36 H11        25.4979   49.9550   41.8822 H           1 B65       0.0424
     37 H12        27.5505   49.5726   39.6080 H           1 B65       0.0288
     38 H13        26.7913   51.0955   40.0311 H           1 B65       0.0288
     39 H14        24.5268   49.5083   39.6474 H           1 B65       0.0298
     40 H15        25.6873   48.7133   38.5980 H           1 B65       0.0298
     41 H16        26.0666   50.9443   37.4123 H           1 B65       0.0695
@<TRIPOS>BOND
     1     1     2  ar
     2     1     6  ar
     3     2     3  ar
     4     3     4  ar
     5     4     5  ar
     6     5     6  ar
     7     6     7   1
     8     7     8   1
     9     8     9  ar
    10     8    10  ar
    11     9    13  ar
    12    10    11  ar
    13    11    12  ar
    14    12    13  ar
    15    13    14   1
    16    14    15   1
    17    15    16   1
    18    16    17   1
    19    17    18   1
    20    17    22   1
    21    18    19  ar
    22    18    20  ar
    23    18    21  ar
    24    22    23  ar
    25    22    24  ar
    26    22    25  ar
    27     1    26   1
    28     2    27   1
    29     3    28   1
    30     4    29   1
    31     5    30   1
    32     9    31   1
    33    10    32   1
    34    11    33   1
    35    12    34   1
    36    14    35   1
    37    14    36   1
    38    15    37   1
    39    15    38   1
    40    16    39   1
    41    16    40   1
    42    17    41   1
@<TRIPOS>SUBSTRUCTURE
     1  B65      1

