@<TRIPOS>MOLECULE
2zcq_ligand_018
    41    42
SMALL
GAST_HUCK
****
This file was generated by PARSER (from files_GN.cpp)

@<TRIPOS>ATOM
      1 CAL        28.5185   45.0834   42.7498 C.ar        1 B65      -0.0285
      2 CAH        27.4735   44.1611   42.9501 C.ar        1 B65      -0.0697
      3 CAG        26.1442   44.5287   42.6670 C.ar        1 B65      -0.0723
      4 CAI        25.8569   45.8270   42.2068 C.ar        1 B65      -0.0697
      5 CAM        26.9008   46.7517   42.0155 C.ar        1 B65      -0.0285
      6 CAU        28.2387   46.3761   42.2535 C.ar        1 B65       0.1159
      7 OAS        29.2454   47.2786   42.0420 O.3         1 B65      -0.2597
      8 CAV        29.8124   47.1587   40.7975 C.ar        1 B65       0.1094
      9 CAO        29.1496   47.6093   39.6367 C.ar        1 B65      -0.0276
     10 CAN        31.1163   46.6347   40.6853 C.ar        1 B65      -0.0354
     11 CAJ        31.7297   46.5352   39.4258 C.ar        1 B65      -0.0762
     12 CAK        31.0521   46.9741   38.2738 C.ar        1 B65      -0.0708
     13 CAT        29.7524   47.5261   38.3590 C.ar        1 B65      -0.0509
     14 CAQ        29.0284   47.9847   37.1344 C.3         1 B65      -0.0214
     15 CAP        28.7302   49.5171   37.0835 C.3         1 B65      -0.0405
     16 CAR        27.4102   49.9823   37.7886 C.3         1 B65      -0.0165
     17 CAW        26.4133   50.7938   36.8934 C.3         1 B65       0.1121
     18 PAX        25.2559   51.6179   37.7849 P.3         1 B65       0.0795
     19 OAB        25.8860   52.5266   38.7088 O.co2       1 B65      -0.5610
     20 OAC        24.3675   52.4146   36.9774 O.co2       1 B65      -0.5610
     21 OAA        24.4520   50.7202   38.5730 O.co2       1 B65      -0.5610
     22 SAY        25.5995   49.7355   35.6518 S.o2        1 B65      -0.1731
     23 OAF        24.8112   50.7245   34.5361 O.co2       1 B65      -0.4830
     24 OAE        24.4554   48.7249   36.3777 O.co2       1 B65      -0.4830
     25 OAD        26.7141   48.7754   34.8206 O.co2       1 B65      -0.4830
     26 H1         29.4802   44.8101   42.9559 H           1 B65       0.0552
     27 H2         27.6793   43.2199   43.2930 H           1 B65       0.0590
     28 H3         25.3855   43.8543   42.8014 H           1 B65       0.0528
     29 H4         24.8929   46.0978   42.0095 H           1 B65       0.0590
     30 H5         26.6833   47.6933   41.6868 H           1 B65       0.0552
     31 H6         28.2118   47.9940   39.7290 H           1 B65       0.0488
     32 H7         31.6168   46.3271   41.5177 H           1 B65       0.0496
     33 H8         32.6722   46.1445   39.3470 H           1 B65       0.0573
     34 H9         31.5212   46.8890   37.3680 H           1 B65       0.0470
     35 H10        28.0959   47.4217   37.0439 H           1 B65       0.0424
     36 H11        29.6184   47.7381   36.2476 H           1 B65       0.0424
     37 H12        28.7054   49.8175   36.0349 H           1 B65       0.0288
     38 H13        29.5809   50.0521   37.5156 H           1 B65       0.0288
     39 H14        27.7082   50.5932   38.6435 H           1 B65       0.0298
     40 H15        26.8675   49.1256   38.1929 H           1 B65       0.0298
     41 H16        26.9800   51.5495   36.3451 H           1 B65       0.0695
@<TRIPOS>BOND
     1     1     2  ar
     2     1     6  ar
     3     2     3  ar
     4     3     4  ar
     5     4     5  ar
     6     5     6  ar
     7     6     7   1
     8     7     8   1
     9     8     9  ar
    10     8    10  ar
    11     9    13  ar
    12    10    11  ar
    13    11    12  ar
    14    12    13  ar
    15    13    14   1
    16    14    15   1
    17    15    16   1
    18    16    17   1
    19    17    18   1
    20    17    22   1
    21    18    19  ar
    22    18    20  ar
    23    18    21  ar
    24    22    23  ar
    25    22    24  ar
    26    22    25  ar
    27     1    26   1
    28     2    27   1
    29     3    28   1
    30     4    29   1
    31     5    30   1
    32     9    31   1
    33    10    32   1
    34    11    33   1
    35    12    34   1
    36    14    35   1
    37    14    36   1
    38    15    37   1
    39    15    38   1
    40    16    39   1
    41    16    40   1
    42    17    41   1
@<TRIPOS>SUBSTRUCTURE
     1  B65      1

