@<TRIPOS>MOLECULE
2zcq_ligand_060
    41    42
SMALL
GAST_HUCK
****
This file was generated by PARSER (from files_GN.cpp)

@<TRIPOS>ATOM
      1 CAL        16.5625   56.7654   36.0310 C.ar        1 B65      -0.0285
      2 CAH        17.1283   57.8212   36.7575 C.ar        1 B65      -0.0697
      3 CAG        18.4911   58.1194   36.5997 C.ar        1 B65      -0.0723
      4 CAI        19.2755   57.3741   35.7005 C.ar        1 B65      -0.0697
      5 CAM        18.7099   56.2918   35.0001 C.ar        1 B65      -0.0285
      6 CAU        17.3519   55.9543   35.1851 C.ar        1 B65       0.1159
      7 OAS        16.7979   54.8959   34.5062 O.3         1 B65      -0.2597
      8 CAV        16.5717   53.8014   35.3083 C.ar        1 B65       0.1094
      9 CAO        17.4209   52.6828   35.2075 C.ar        1 B65      -0.0276
     10 CAN        15.4497   53.7202   36.1626 C.ar        1 B65      -0.0354
     11 CAJ        15.2489   52.6040   36.9847 C.ar        1 B65      -0.0762
     12 CAK        16.1251   51.5113   36.9024 C.ar        1 B65      -0.0708
     13 CAT        17.2144   51.5302   36.0041 C.ar        1 B65      -0.0509
     14 CAQ        18.1254   50.3636   35.8817 C.3         1 B65      -0.0214
     15 CAP        19.5182   50.6325   36.5231 C.3         1 B65      -0.0405
     16 CAR        20.6756   49.7953   35.8912 C.3         1 B65      -0.0165
     17 CAW        21.9093   50.5510   35.3103 C.3         1 B65       0.1121
     18 PAX        22.9981   51.1099   36.4579 P.3         1 B65       0.0795
     19 OAB        23.0312   52.5405   36.6149 O.co2       1 B65      -0.5610
     20 OAC        22.7561   50.5683   37.7697 O.co2       1 B65      -0.5610
     21 OAA        24.3335   50.7028   36.1169 O.co2       1 B65      -0.5610
     22 SAY        21.4136   51.8018   34.0922 S.o2        1 B65      -0.1731
     23 OAF        20.1468   51.1952   33.1516 O.co2       1 B65      -0.4830
     24 OAE        22.7201   52.1565   33.0820 O.co2       1 B65      -0.4830
     25 OAD        20.8944   53.2221   34.8478 O.co2       1 B65      -0.4830
     26 H1         15.5683   56.5925   36.1299 H           1 B65       0.0552
     27 H2         16.5460   58.3646   37.3933 H           1 B65       0.0590
     28 H3         18.9063   58.8902   37.1270 H           1 B65       0.0528
     29 H4         20.2581   57.6173   35.5613 H           1 B65       0.0590
     30 H5         19.2921   55.7591   34.3550 H           1 B65       0.0552
     31 H6         18.2037   52.7180   34.5551 H           1 B65       0.0488
     32 H7         14.7774   54.4772   36.2146 H           1 B65       0.0496
     33 H8         14.4575   52.5765   37.6272 H           1 B65       0.0573
     34 H9         15.9684   50.7030   37.5110 H           1 B65       0.0470
     35 H10        18.2156   50.1286   34.8184 H           1 B65       0.0424
     36 H11        17.6994   49.4742   36.3546 H           1 B65       0.0424
     37 H12        19.4532   50.4155   37.5904 H           1 B65       0.0288
     38 H13        19.7585   51.6887   36.4660 H           1 B65       0.0288
     39 H14        20.2873   49.1744   35.0794 H           1 B65       0.0298
     40 H15        21.0241   49.0834   36.6395 H           1 B65       0.0298
     41 H16        22.4555   49.8045   34.7257 H           1 B65       0.0695
@<TRIPOS>BOND
     1     1     2  ar
     2     1     6  ar
     3     2     3  ar
     4     3     4  ar
     5     4     5  ar
     6     5     6  ar
     7     6     7   1
     8     7     8   1
     9     8     9  ar
    10     8    10  ar
    11     9    13  ar
    12    10    11  ar
    13    11    12  ar
    14    12    13  ar
    15    13    14   1
    16    14    15   1
    17    15    16   1
    18    16    17   1
    19    17    18   1
    20    17    22   1
    21    18    19  ar
    22    18    20  ar
    23    18    21  ar
    24    22    23  ar
    25    22    24  ar
    26    22    25  ar
    27     1    26   1
    28     2    27   1
    29     3    28   1
    30     4    29   1
    31     5    30   1
    32     9    31   1
    33    10    32   1
    34    11    33   1
    35    12    34   1
    36    14    35   1
    37    14    36   1
    38    15    37   1
    39    15    38   1
    40    16    39   1
    41    16    40   1
    42    17    41   1
@<TRIPOS>SUBSTRUCTURE
     1  B65      1

