@<TRIPOS>MOLECULE
2zcq_ligand_047
    41    42
SMALL
GAST_HUCK
****
This file was generated by PARSER (from files_GN.cpp)

@<TRIPOS>ATOM
      1 CAL        16.0118   56.8908   36.5485 C.ar        1 B65      -0.0285
      2 CAH        17.0249   57.8708   36.5720 C.ar        1 B65      -0.0697
      3 CAG        18.2151   57.6720   35.8538 C.ar        1 B65      -0.0723
      4 CAI        18.3955   56.4926   35.1105 C.ar        1 B65      -0.0697
      5 CAM        17.3795   55.5206   35.0701 C.ar        1 B65      -0.0285
      6 CAU        16.1820   55.7076   35.8000 C.ar        1 B65       0.1159
      7 OAS        15.1619   54.7857   35.7235 O.3         1 B65      -0.2597
      8 CAV        15.1765   53.9310   36.8000 C.ar        1 B65       0.1094
      9 CAO        15.9860   52.7774   36.7880 C.ar        1 B65      -0.0276
     10 CAN        14.3811   54.1942   37.9328 C.ar        1 B65      -0.0354
     11 CAJ        14.4569   53.3568   39.0613 C.ar        1 B65      -0.0762
     12 CAK        15.3598   52.2816   39.0751 C.ar        1 B65      -0.0708
     13 CAT        16.1534   51.9745   37.9448 C.ar        1 B65      -0.0509
     14 CAQ        17.1935   50.9068   37.9784 C.3         1 B65      -0.0214
     15 CAP        18.6646   51.4375   38.0403 C.3         1 B65      -0.0405
     16 CAR        19.0319   52.5320   36.9845 C.3         1 B65      -0.0165
     17 CAW        20.4851   53.1076   36.9615 C.3         1 B65       0.1121
     18 PAX        21.6845   51.9932   36.6832 P.3         1 B65       0.0795
     19 OAB        22.9665   52.6276   36.4569 O.co2       1 B65      -0.5610
     20 OAC        21.8504   51.0676   37.7831 O.co2       1 B65      -0.5610
     21 OAA        21.4074   51.2184   35.4933 O.co2       1 B65      -0.5610
     22 SAY        20.8157   54.2472   38.3636 S.o2        1 B65      -0.1731
     23 OAF        22.4789   54.5468   38.5502 O.co2       1 B65      -0.4830
     24 OAE        20.2192   53.6454   39.8370 O.co2       1 B65      -0.4830
     25 OAD        20.0161   55.7168   38.0493 O.co2       1 B65      -0.4830
     26 H1         15.1439   57.0493   37.0668 H           1 B65       0.0552
     27 H2         16.8893   58.7278   37.1161 H           1 B65       0.0590
     28 H3         18.9437   58.3866   35.8655 H           1 B65       0.0528
     29 H4         19.2555   56.3561   34.5778 H           1 B65       0.0590
     30 H5         17.5096   54.6748   34.5133 H           1 B65       0.0552
     31 H6         16.5356   52.5641   35.9360 H           1 B65       0.0488
     32 H7         13.7593   55.0050   37.9411 H           1 B65       0.0496
     33 H8         13.8875   53.5598   39.8791 H           1 B65       0.0573
     34 H9         15.4332   51.7076   39.9188 H           1 B65       0.0470
     35 H10        17.0812   50.2517   37.1096 H           1 B65       0.0424
     36 H11        17.0273   50.2784   38.8617 H           1 B65       0.0424
     37 H12        19.3253   50.5727   37.8739 H           1 B65       0.0288
     38 H13        18.8603   51.7993   39.0588 H           1 B65       0.0288
     39 H14        18.3769   53.3949   37.1336 H           1 B65       0.0298
     40 H15        18.7890   52.1264   35.9975 H           1 B65       0.0298
     41 H16        20.5090   53.7573   36.0926 H           1 B65       0.0695
@<TRIPOS>BOND
     1     1     2  ar
     2     1     6  ar
     3     2     3  ar
     4     3     4  ar
     5     4     5  ar
     6     5     6  ar
     7     6     7   1
     8     7     8   1
     9     8     9  ar
    10     8    10  ar
    11     9    13  ar
    12    10    11  ar
    13    11    12  ar
    14    12    13  ar
    15    13    14   1
    16    14    15   1
    17    15    16   1
    18    16    17   1
    19    17    18   1
    20    17    22   1
    21    18    19  ar
    22    18    20  ar
    23    18    21  ar
    24    22    23  ar
    25    22    24  ar
    26    22    25  ar
    27     1    26   1
    28     2    27   1
    29     3    28   1
    30     4    29   1
    31     5    30   1
    32     9    31   1
    33    10    32   1
    34    11    33   1
    35    12    34   1
    36    14    35   1
    37    14    36   1
    38    15    37   1
    39    15    38   1
    40    16    39   1
    41    16    40   1
    42    17    41   1
@<TRIPOS>SUBSTRUCTURE
     1  B65      1

