@<TRIPOS>MOLECULE
2zcq_ligand_032
    41    42
SMALL
GAST_HUCK
****
This file was generated by PARSER (from files_GN.cpp)

@<TRIPOS>ATOM
      1 CAL        30.4849   48.3175   44.0626 C.ar        1 B65      -0.0285
      2 CAH        30.6345   48.7117   45.4041 C.ar        1 B65      -0.0697
      3 CAG        29.8698   49.7816   45.9167 C.ar        1 B65      -0.0723
      4 CAI        28.9696   50.4657   45.0756 C.ar        1 B65      -0.0697
      5 CAM        28.8223   50.0734   43.7313 C.ar        1 B65      -0.0285
      6 CAU        29.5679   48.9877   43.2203 C.ar        1 B65       0.1159
      7 OAS        29.4894   48.6795   41.8941 O.3         1 B65      -0.2597
      8 CAV        28.4858   47.8012   41.5858 C.ar        1 B65       0.1094
      9 CAO        27.1562   48.2462   41.4393 C.ar        1 B65      -0.0276
     10 CAN        28.8191   46.4779   41.2382 C.ar        1 B65      -0.0354
     11 CAJ        27.8245   45.6031   40.7647 C.ar        1 B65      -0.0762
     12 CAK        26.5041   46.0551   40.6075 C.ar        1 B65      -0.0708
     13 CAT        26.1508   47.3873   40.9307 C.ar        1 B65      -0.0509
     14 CAQ        24.7551   47.8702   40.7280 C.3         1 B65      -0.0214
     15 CAP        24.5642   49.2987   40.1226 C.3         1 B65      -0.0405
     16 CAR        25.5893   49.7376   39.0331 C.3         1 B65      -0.0165
     17 CAW        25.1013   50.7649   37.9579 C.3         1 B65       0.1121
     18 PAX        24.4663   52.1978   38.5560 P.3         1 B65       0.0795
     19 OAB        24.0747   53.0840   37.4899 O.co2       1 B65      -0.5610
     20 OAC        23.2676   51.9971   39.3276 O.co2       1 B65      -0.5610
     21 OAA        25.4181   52.9011   39.3811 O.co2       1 B65      -0.5610
     22 SAY        23.9804   50.0087   36.7383 S.o2        1 B65      -0.1731
     23 OAF        22.3813   50.1439   37.2737 O.co2       1 B65      -0.4830
     24 OAE        24.3785   48.3781   36.5192 O.co2       1 B65      -0.4830
     25 OAD        24.1705   50.8067   35.2604 O.co2       1 B65      -0.4830
     26 H1         31.0474   47.5476   43.6925 H           1 B65       0.0552
     27 H2         31.2987   48.2244   46.0106 H           1 B65       0.0590
     28 H3         29.9890   50.0719   46.8909 H           1 B65       0.0528
     29 H4         28.4247   51.2510   45.4459 H           1 B65       0.0590
     30 H5         28.1827   50.5885   43.1241 H           1 B65       0.0552
     31 H6         26.9288   49.2181   41.6804 H           1 B65       0.0488
     32 H7         29.7815   46.1485   41.3170 H           1 B65       0.0496
     33 H8         28.0630   44.6383   40.5264 H           1 B65       0.0573
     34 H9         25.8027   45.4093   40.2365 H           1 B65       0.0470
     35 H10        24.2554   47.8471   41.7011 H           1 B65       0.0424
     36 H11        24.2119   47.1712   40.0841 H           1 B65       0.0424
     37 H12        24.6093   50.0277   40.9367 H           1 B65       0.0288
     38 H13        23.5534   49.3483   39.7056 H           1 B65       0.0288
     39 H14        25.9561   48.8446   38.5129 H           1 B65       0.0298
     40 H15        26.4537   50.1787   39.5432 H           1 B65       0.0298
     41 H16        25.9900   51.0469   37.3805 H           1 B65       0.0695
@<TRIPOS>BOND
     1     1     2  ar
     2     1     6  ar
     3     2     3  ar
     4     3     4  ar
     5     4     5  ar
     6     5     6  ar
     7     6     7   1
     8     7     8   1
     9     8     9  ar
    10     8    10  ar
    11     9    13  ar
    12    10    11  ar
    13    11    12  ar
    14    12    13  ar
    15    13    14   1
    16    14    15   1
    17    15    16   1
    18    16    17   1
    19    17    18   1
    20    17    22   1
    21    18    19  ar
    22    18    20  ar
    23    18    21  ar
    24    22    23  ar
    25    22    24  ar
    26    22    25  ar
    27     1    26   1
    28     2    27   1
    29     3    28   1
    30     4    29   1
    31     5    30   1
    32     9    31   1
    33    10    32   1
    34    11    33   1
    35    12    34   1
    36    14    35   1
    37    14    36   1
    38    15    37   1
    39    15    38   1
    40    16    39   1
    41    16    40   1
    42    17    41   1
@<TRIPOS>SUBSTRUCTURE
     1  B65      1

