@<TRIPOS>MOLECULE
2zcq_ligand_004
    41    42
SMALL
GAST_HUCK
****
This file was generated by PARSER (from files_GN.cpp)

@<TRIPOS>ATOM
      1 CAL        27.8139   45.6887   37.0294 C.ar        1 B65      -0.0285
      2 CAH        27.0925   46.0837   35.8917 C.ar        1 B65      -0.0697
      3 CAG        25.7304   46.4274   36.0073 C.ar        1 B65      -0.0723
      4 CAI        25.0881   46.3435   37.2557 C.ar        1 B65      -0.0697
      5 CAM        25.8040   45.9239   38.3916 C.ar        1 B65      -0.0285
      6 CAU        27.1822   45.6239   38.2886 C.ar        1 B65       0.1159
      7 OAS        27.9405   45.3084   39.3930 O.3         1 B65      -0.2597
      8 CAV        28.1542   46.3761   40.2325 C.ar        1 B65       0.1094
      9 CAO        28.5564   47.6519   39.7632 C.ar        1 B65      -0.0276
     10 CAN        27.9677   46.1872   41.6105 C.ar        1 B65      -0.0354
     11 CAJ        28.1279   47.2586   42.5087 C.ar        1 B65      -0.0762
     12 CAK        28.4470   48.5384   42.0214 C.ar        1 B65      -0.0708
     13 CAT        28.6536   48.7562   40.6393 C.ar        1 B65      -0.0509
     14 CAQ        28.9440   50.1161   40.1084 C.3         1 B65      -0.0214
     15 CAP        28.0935   50.5383   38.8751 C.3         1 B65      -0.0405
     16 CAR        26.5516   50.5634   39.0856 C.3         1 B65      -0.0165
     17 CAW        25.7691   51.2378   37.9017 C.3         1 B65       0.1121
     18 PAX        24.3299   51.9317   38.3913 P.3         1 B65       0.0795
     19 OAB        23.8235   52.8621   37.4108 O.co2       1 B65      -0.5610
     20 OAC        23.2804   50.9697   38.6501 O.co2       1 B65      -0.5610
     21 OAA        24.5344   52.7070   39.5913 O.co2       1 B65      -0.5610
     22 SAY        25.4660   50.0972   36.5125 S.o2        1 B65      -0.1731
     23 OAF        25.0116   50.9534   35.1291 O.co2       1 B65      -0.4830
     24 OAE        24.2208   49.0166   36.8782 O.co2       1 B65      -0.4830
     25 OAD        26.8650   49.2305   36.1341 O.co2       1 B65      -0.4830
     26 H1         28.8100   45.4695   36.9494 H           1 B65       0.0552
     27 H2         27.5569   46.1325   34.9839 H           1 B65       0.0590
     28 H3         25.2042   46.7206   35.1771 H           1 B65       0.0528
     29 H4         24.0999   46.5993   37.3399 H           1 B65       0.0590
     30 H5         25.3315   45.8632   39.2951 H           1 B65       0.0552
     31 H6         28.7269   47.7807   38.7615 H           1 B65       0.0488
     32 H7         27.6993   45.2694   41.9689 H           1 B65       0.0496
     33 H8         27.9876   47.1134   43.5090 H           1 B65       0.0573
     34 H9         28.5308   49.3108   42.6877 H           1 B65       0.0470
     35 H10        30.0005   50.1494   39.8267 H           1 B65       0.0424
     36 H11        28.8016   50.8722   40.8881 H           1 B65       0.0424
     37 H12        28.3391   49.8813   38.0416 H           1 B65       0.0288
     38 H13        28.4170   51.5451   38.5993 H           1 B65       0.0288
     39 H14        26.3783   51.1037   40.0200 H           1 B65       0.0298
     40 H15        26.1857   49.5449   39.2347 H           1 B65       0.0298
     41 H16        26.3816   52.0527   37.5031 H           1 B65       0.0695
@<TRIPOS>BOND
     1     1     2  ar
     2     1     6  ar
     3     2     3  ar
     4     3     4  ar
     5     4     5  ar
     6     5     6  ar
     7     6     7   1
     8     7     8   1
     9     8     9  ar
    10     8    10  ar
    11     9    13  ar
    12    10    11  ar
    13    11    12  ar
    14    12    13  ar
    15    13    14   1
    16    14    15   1
    17    15    16   1
    18    16    17   1
    19    17    18   1
    20    17    22   1
    21    18    19  ar
    22    18    20  ar
    23    18    21  ar
    24    22    23  ar
    25    22    24  ar
    26    22    25  ar
    27     1    26   1
    28     2    27   1
    29     3    28   1
    30     4    29   1
    31     5    30   1
    32     9    31   1
    33    10    32   1
    34    11    33   1
    35    12    34   1
    36    14    35   1
    37    14    36   1
    38    15    37   1
    39    15    38   1
    40    16    39   1
    41    16    40   1
    42    17    41   1
@<TRIPOS>SUBSTRUCTURE
     1  B65      1

