@<TRIPOS>MOLECULE
2zcq_ligand_059
    41    42
SMALL
GAST_HUCK
****
This file was generated by PARSER (from files_GN.cpp)

@<TRIPOS>ATOM
      1 CAL        14.7932   57.3351   37.9025 C.ar        1 B65      -0.0285
      2 CAH        13.5066   56.7858   37.7464 C.ar        1 B65      -0.0697
      3 CAG        12.9925   56.5512   36.4572 C.ar        1 B65      -0.0723
      4 CAI        13.7637   56.8715   35.3252 C.ar        1 B65      -0.0697
      5 CAM        15.0442   57.4296   35.4801 C.ar        1 B65      -0.0285
      6 CAU        15.5785   57.6414   36.7700 C.ar        1 B65       0.1159
      7 OAS        16.8304   58.1762   36.9261 O.3         1 B65      -0.2597
      8 CAV        17.7966   57.2106   36.8069 C.ar        1 B65       0.1094
      9 CAO        18.2500   56.5073   37.9411 C.ar        1 B65      -0.0276
     10 CAN        18.3579   56.9228   35.5464 C.ar        1 B65      -0.0354
     11 CAJ        19.2912   55.8827   35.4118 C.ar        1 B65      -0.0762
     12 CAK        19.6890   55.1489   36.5412 C.ar        1 B65      -0.0708
     13 CAT        19.2301   55.4951   37.8351 C.ar        1 B65      -0.0509
     14 CAQ        19.6963   54.7452   39.0339 C.3         1 B65      -0.0214
     15 CAP        21.2435   54.7080   39.2356 C.3         1 B65      -0.0405
     16 CAR        21.9159   55.7287   40.2237 C.3         1 B65      -0.0165
     17 CAW        22.6515   55.1507   41.4924 C.3         1 B65       0.1121
     18 PAX        23.6459   56.2841   42.2281 P.3         1 B65       0.0795
     19 OAB        22.9555   57.4618   42.7127 O.co2       1 B65      -0.5610
     20 OAC        24.3754   55.7976   43.3683 O.co2       1 B65      -0.5610
     21 OAA        24.6324   56.7429   41.2816 O.co2       1 B65      -0.5610
     22 SAY        23.5896   53.6116   41.1783 S.o2        1 B65      -0.1731
     23 OAF        24.2034   53.6671   39.6028 O.co2       1 B65      -0.4830
     24 OAE        22.5414   52.2973   41.3559 O.co2       1 B65      -0.4830
     25 OAD        24.8687   53.3599   42.2516 O.co2       1 B65      -0.4830
     26 H1         15.1615   57.5051   38.8412 H           1 B65       0.0552
     27 H2         12.9427   56.5610   38.5692 H           1 B65       0.0590
     28 H3         12.0571   56.1564   36.3418 H           1 B65       0.0528
     29 H4         13.3911   56.7082   34.3890 H           1 B65       0.0590
     30 H5         15.5944   57.6682   34.6530 H           1 B65       0.0552
     31 H6         17.8323   56.7152   38.8480 H           1 B65       0.0488
     32 H7         18.0592   57.4435   34.7212 H           1 B65       0.0496
     33 H8         19.6679   55.6535   34.4902 H           1 B65       0.0573
     34 H9         20.3333   54.3660   36.4099 H           1 B65       0.0470
     35 H10        19.3341   53.7208   38.9035 H           1 B65       0.0424
     36 H11        19.2281   55.1199   39.9466 H           1 B65       0.0424
     37 H12        21.7447   54.8166   38.2721 H           1 B65       0.0288
     38 H13        21.4694   53.6975   39.5475 H           1 B65       0.0288
     39 H14        21.1580   56.4392   40.5634 H           1 B65       0.0298
     40 H15        22.6392   56.3105   39.6409 H           1 B65       0.0298
     41 H16        21.8788   54.8808   42.2147 H           1 B65       0.0695
@<TRIPOS>BOND
     1     1     2  ar
     2     1     6  ar
     3     2     3  ar
     4     3     4  ar
     5     4     5  ar
     6     5     6  ar
     7     6     7   1
     8     7     8   1
     9     8     9  ar
    10     8    10  ar
    11     9    13  ar
    12    10    11  ar
    13    11    12  ar
    14    12    13  ar
    15    13    14   1
    16    14    15   1
    17    15    16   1
    18    16    17   1
    19    17    18   1
    20    17    22   1
    21    18    19  ar
    22    18    20  ar
    23    18    21  ar
    24    22    23  ar
    25    22    24  ar
    26    22    25  ar
    27     1    26   1
    28     2    27   1
    29     3    28   1
    30     4    29   1
    31     5    30   1
    32     9    31   1
    33    10    32   1
    34    11    33   1
    35    12    34   1
    36    14    35   1
    37    14    36   1
    38    15    37   1
    39    15    38   1
    40    16    39   1
    41    16    40   1
    42    17    41   1
@<TRIPOS>SUBSTRUCTURE
     1  B65      1

