@<TRIPOS>MOLECULE
2zcq_ligand_061
    41    42
SMALL
GAST_HUCK
****
This file was generated by PARSER (from files_GN.cpp)

@<TRIPOS>ATOM
      1 CAL        26.3312   49.6680   35.6250 C.ar        1 B65      -0.0285
      2 CAH        27.6562   49.7085   35.1569 C.ar        1 B65      -0.0697
      3 CAG        28.4508   48.5463   35.1936 C.ar        1 B65      -0.0723
      4 CAI        27.9098   47.3403   35.6818 C.ar        1 B65      -0.0697
      5 CAM        26.5844   47.2996   36.1441 C.ar        1 B65      -0.0285
      6 CAU        25.7929   48.4700   36.1435 C.ar        1 B65       0.1159
      7 OAS        24.5012   48.4424   36.5960 O.3         1 B65      -0.2597
      8 CAV        24.4315   48.6308   37.9480 C.ar        1 B65       0.1094
      9 CAO        24.3642   49.9327   38.4980 C.ar        1 B65      -0.0276
     10 CAN        24.3570   47.5149   38.7999 C.ar        1 B65      -0.0354
     11 CAJ        24.2643   47.6914   40.1891 C.ar        1 B65      -0.0762
     12 CAK        24.2155   48.9907   40.7264 C.ar        1 B65      -0.0708
     13 CAT        24.2450   50.1411   39.8952 C.ar        1 B65      -0.0509
     14 CAQ        24.1608   51.4753   40.5716 C.3         1 B65      -0.0214
     15 CAP        24.1191   52.8347   39.7806 C.3         1 B65      -0.0405
     16 CAR        22.8779   53.7534   40.0597 C.3         1 B65      -0.0165
     17 CAW        21.9577   54.1666   38.8576 C.3         1 B65       0.1121
     18 PAX        20.5210   54.8356   39.4024 P.3         1 B65       0.0795
     19 OAB        20.7279   55.7793   40.4781 O.co2       1 B65      -0.5610
     20 OAC        19.8076   55.5471   38.3698 O.co2       1 B65      -0.5610
     21 OAA        19.6418   53.8081   39.9160 O.co2       1 B65      -0.5610
     22 SAY        21.6190   52.8761   37.6091 S.o2        1 B65      -0.1731
     23 OAF        21.3002   51.3873   38.3397 O.co2       1 B65      -0.4830
     24 OAE        22.9632   52.6864   36.5983 O.co2       1 B65      -0.4830
     25 OAD        20.3034   53.3078   36.6326 O.co2       1 B65      -0.4830
     26 H1         25.7580   50.5141   35.5948 H           1 B65       0.0552
     27 H2         28.0443   50.5828   34.7938 H           1 B65       0.0590
     28 H3         29.4167   48.5753   34.8561 H           1 B65       0.0528
     29 H4         28.4847   46.4961   35.7029 H           1 B65       0.0590
     30 H5         26.1973   46.4196   36.4898 H           1 B65       0.0552
     31 H6         24.4061   50.7161   37.8479 H           1 B65       0.0488
     32 H7         24.3787   46.5692   38.4139 H           1 B65       0.0496
     33 H8         24.2322   46.8820   40.8098 H           1 B65       0.0573
     34 H9         24.1396   49.0934   41.7423 H           1 B65       0.0470
     35 H10        25.0186   51.5264   41.2481 H           1 B65       0.0424
     36 H11        23.2820   51.4172   41.2184 H           1 B65       0.0424
     37 H12        24.2367   52.6814   38.7122 H           1 B65       0.0288
     38 H13        25.0219   53.3957   40.0578 H           1 B65       0.0288
     39 H14        23.2747   54.6906   40.4923 H           1 B65       0.0298
     40 H15        22.2737   53.3130   40.8514 H           1 B65       0.0298
     41 H16        22.4748   54.9709   38.3293 H           1 B65       0.0695
@<TRIPOS>BOND
     1     1     2  ar
     2     1     6  ar
     3     2     3  ar
     4     3     4  ar
     5     4     5  ar
     6     5     6  ar
     7     6     7   1
     8     7     8   1
     9     8     9  ar
    10     8    10  ar
    11     9    13  ar
    12    10    11  ar
    13    11    12  ar
    14    12    13  ar
    15    13    14   1
    16    14    15   1
    17    15    16   1
    18    16    17   1
    19    17    18   1
    20    17    22   1
    21    18    19  ar
    22    18    20  ar
    23    18    21  ar
    24    22    23  ar
    25    22    24  ar
    26    22    25  ar
    27     1    26   1
    28     2    27   1
    29     3    28   1
    30     4    29   1
    31     5    30   1
    32     9    31   1
    33    10    32   1
    34    11    33   1
    35    12    34   1
    36    14    35   1
    37    14    36   1
    38    15    37   1
    39    15    38   1
    40    16    39   1
    41    16    40   1
    42    17    41   1
@<TRIPOS>SUBSTRUCTURE
     1  B65      1

