@<TRIPOS>MOLECULE
2zcq_ligand_044
    41    42
SMALL
GAST_HUCK
****
This file was generated by PARSER (from files_GN.cpp)

@<TRIPOS>ATOM
      1 CAL        16.6415   50.1112   35.7929 C.ar        1 B65      -0.0285
      2 CAH        17.1420   49.0416   35.0230 C.ar        1 B65      -0.0697
      3 CAG        16.7641   47.7202   35.3204 C.ar        1 B65      -0.0723
      4 CAI        15.8791   47.4641   36.3881 C.ar        1 B65      -0.0697
      5 CAM        15.3765   48.5316   37.1524 C.ar        1 B65      -0.0285
      6 CAU        15.7759   49.8579   36.8812 C.ar        1 B65       0.1159
      7 OAS        15.2642   50.8838   37.6294 O.3         1 B65      -0.2597
      8 CAV        16.1528   51.3613   38.5484 C.ar        1 B65       0.1094
      9 CAO        16.7320   52.6310   38.3596 C.ar        1 B65      -0.0276
     10 CAN        16.4636   50.6332   39.7205 C.ar        1 B65      -0.0354
     11 CAJ        17.3405   51.1665   40.6762 C.ar        1 B65      -0.0762
     12 CAK        17.9268   52.4309   40.4625 C.ar        1 B65      -0.0708
     13 CAT        17.6581   53.1678   39.2882 C.ar        1 B65      -0.0509
     14 CAQ        18.3515   54.4660   38.9824 C.3         1 B65      -0.0214
     15 CAP        19.6380   54.7750   39.8205 C.3         1 B65      -0.0405
     16 CAR        20.7173   55.6547   39.1106 C.3         1 B65      -0.0165
     17 CAW        22.2002   55.6019   39.6489 C.3         1 B65       0.1121
     18 PAX        22.6774   54.1409   40.3145 P.3         1 B65       0.0795
     19 OAB        21.8624   53.8617   41.4704 O.co2       1 B65      -0.5610
     20 OAC        22.4220   53.0811   39.3732 O.co2       1 B65      -0.5610
     21 OAA        24.0690   54.0254   40.6870 O.co2       1 B65      -0.5610
     22 SAY        22.6491   56.9978   40.7290 S.o2        1 B65      -0.1731
     23 OAF        23.6809   58.0377   39.8746 O.co2       1 B65      -0.4830
     24 OAE        23.4680   56.5084   42.1318 O.co2       1 B65      -0.4830
     25 OAD        21.2749   57.8740   41.1947 O.co2       1 B65      -0.4830
     26 H1         16.9215   51.0633   35.5705 H           1 B65       0.0552
     27 H2         17.7771   49.2234   34.2410 H           1 B65       0.0590
     28 H3         17.1332   46.9453   34.7657 H           1 B65       0.0528
     29 H4         15.5975   46.5001   36.5997 H           1 B65       0.0590
     30 H5         14.7336   48.3373   37.9224 H           1 B65       0.0552
     31 H6         16.4956   53.1554   37.5195 H           1 B65       0.0488
     32 H7         16.0462   49.7159   39.8802 H           1 B65       0.0496
     33 H8         17.5534   50.6350   41.5192 H           1 B65       0.0573
     34 H9         18.5590   52.8099   41.1645 H           1 B65       0.0470
     35 H10        17.6325   55.2908   39.0875 H           1 B65       0.0424
     36 H11        18.6492   54.4553   37.9187 H           1 B65       0.0424
     37 H12        20.1079   53.8100   40.0456 H           1 B65       0.0288
     38 H13        19.3539   55.2397   40.7714 H           1 B65       0.0288
     39 H14        20.3613   56.6856   39.0814 H           1 B65       0.0298
     40 H15        20.7460   55.3139   38.0722 H           1 B65       0.0298
     41 H16        22.8354   55.7270   38.7683 H           1 B65       0.0695
@<TRIPOS>BOND
     1     1     2  ar
     2     1     6  ar
     3     2     3  ar
     4     3     4  ar
     5     4     5  ar
     6     5     6  ar
     7     6     7   1
     8     7     8   1
     9     8     9  ar
    10     8    10  ar
    11     9    13  ar
    12    10    11  ar
    13    11    12  ar
    14    12    13  ar
    15    13    14   1
    16    14    15   1
    17    15    16   1
    18    16    17   1
    19    17    18   1
    20    17    22   1
    21    18    19  ar
    22    18    20  ar
    23    18    21  ar
    24    22    23  ar
    25    22    24  ar
    26    22    25  ar
    27     1    26   1
    28     2    27   1
    29     3    28   1
    30     4    29   1
    31     5    30   1
    32     9    31   1
    33    10    32   1
    34    11    33   1
    35    12    34   1
    36    14    35   1
    37    14    36   1
    38    15    37   1
    39    15    38   1
    40    16    39   1
    41    16    40   1
    42    17    41   1
@<TRIPOS>SUBSTRUCTURE
     1  B65      1

