@<TRIPOS>MOLECULE
2zcq_ligand_006
    41    42
SMALL
GAST_HUCK
****
This file was generated by PARSER (from files_GN.cpp)

@<TRIPOS>ATOM
      1 CAL        26.4561   47.6760   33.5029 C.ar        1 B65      -0.0285
      2 CAH        25.1954   47.5898   32.8778 C.ar        1 B65      -0.0697
      3 CAG        24.5093   46.3610   32.8387 C.ar        1 B65      -0.0723
      4 CAI        25.1055   45.2102   33.3880 C.ar        1 B65      -0.0697
      5 CAM        26.3660   45.2977   34.0107 C.ar        1 B65      -0.0285
      6 CAU        27.0251   46.5436   34.1211 C.ar        1 B65       0.1159
      7 OAS        28.2362   46.6514   34.7565 O.3         1 B65      -0.2597
      8 CAV        28.1477   46.5815   36.1272 C.ar        1 B65       0.1094
      9 CAO        28.3710   47.7387   36.9069 C.ar        1 B65      -0.0276
     10 CAN        27.9512   45.3386   36.7699 C.ar        1 B65      -0.0354
     11 CAJ        27.8883   45.2686   38.1736 C.ar        1 B65      -0.0762
     12 CAK        28.0641   46.4294   38.9471 C.ar        1 B65      -0.0708
     13 CAT        28.3366   47.6750   38.3261 C.ar        1 B65      -0.0509
     14 CAQ        28.6703   48.8688   39.1635 C.3         1 B65      -0.0214
     15 CAP        28.0076   50.2039   38.7304 C.3         1 B65      -0.0405
     16 CAR        26.4693   50.3257   38.9827 C.3         1 B65      -0.0165
     17 CAW        25.7263   51.1709   37.8843 C.3         1 B65       0.1121
     18 PAX        24.3498   51.9443   38.4287 P.3         1 B65       0.0795
     19 OAB        23.2582   51.0450   38.7113 O.co2       1 B65      -0.5610
     20 OAC        24.6434   52.7204   39.6101 O.co2       1 B65      -0.5610
     21 OAA        23.8821   52.8935   37.4430 O.co2       1 B65      -0.5610
     22 SAY        25.3518   50.1263   36.4341 S.o2        1 B65      -0.1731
     23 OAF        26.7782   49.3561   35.9177 O.co2       1 B65      -0.4830
     24 OAE        24.7365   51.0457   35.1517 O.co2       1 B65      -0.4830
     25 OAD        24.1993   48.9516   36.8429 O.co2       1 B65      -0.4830
     26 H1         26.9618   48.5615   33.5044 H           1 B65       0.0552
     27 H2         24.7758   48.4211   32.4548 H           1 B65       0.0590
     28 H3         23.5899   46.2997   32.3951 H           1 B65       0.0528
     29 H4         24.6215   44.3055   33.3354 H           1 B65       0.0590
     30 H5         26.8002   44.4498   34.3825 H           1 B65       0.0552
     31 H6         28.6172   48.6092   36.4390 H           1 B65       0.0488
     32 H7         27.8608   44.4811   36.2185 H           1 B65       0.0496
     33 H8         27.7359   44.3630   38.6315 H           1 B65       0.0573
     34 H9         28.0248   46.3498   39.9680 H           1 B65       0.0470
     35 H10        29.7547   48.9987   39.1159 H           1 B65       0.0424
     36 H11        28.4243   48.6948   40.2151 H           1 B65       0.0424
     37 H12        28.2384   50.3646   37.6760 H           1 B65       0.0288
     38 H13        28.5000   51.0188   39.2805 H           1 B65       0.0288
     39 H14        26.3471   50.7736   39.9741 H           1 B65       0.0298
     40 H15        26.0209   49.3300   39.0421 H           1 B65       0.0298
     41 H16        26.4016   51.9641   37.5411 H           1 B65       0.0695
@<TRIPOS>BOND
     1     1     2  ar
     2     1     6  ar
     3     2     3  ar
     4     3     4  ar
     5     4     5  ar
     6     5     6  ar
     7     6     7   1
     8     7     8   1
     9     8     9  ar
    10     8    10  ar
    11     9    13  ar
    12    10    11  ar
    13    11    12  ar
    14    12    13  ar
    15    13    14   1
    16    14    15   1
    17    15    16   1
    18    16    17   1
    19    17    18   1
    20    17    22   1
    21    18    19  ar
    22    18    20  ar
    23    18    21  ar
    24    22    23  ar
    25    22    24  ar
    26    22    25  ar
    27     1    26   1
    28     2    27   1
    29     3    28   1
    30     4    29   1
    31     5    30   1
    32     9    31   1
    33    10    32   1
    34    11    33   1
    35    12    34   1
    36    14    35   1
    37    14    36   1
    38    15    37   1
    39    15    38   1
    40    16    39   1
    41    16    40   1
    42    17    41   1
@<TRIPOS>SUBSTRUCTURE
     1  B65      1

