@<TRIPOS>MOLECULE
2zcq_ligand_053
    41    42
SMALL
GAST_HUCK
****
This file was generated by PARSER (from files_GN.cpp)

@<TRIPOS>ATOM
      1 CAL        13.2977   55.1501   40.9607 C.ar        1 B65      -0.0285
      2 CAH        12.6655   55.9591   41.9213 C.ar        1 B65      -0.0697
      3 CAG        11.6853   55.4099   42.7685 C.ar        1 B65      -0.0723
      4 CAI        11.3400   54.0516   42.6591 C.ar        1 B65      -0.0697
      5 CAM        11.9720   53.2408   41.6967 C.ar        1 B65      -0.0285
      6 CAU        12.9622   53.7804   40.8531 C.ar        1 B65       0.1159
      7 OAS        13.5269   52.9730   39.9010 O.3         1 B65      -0.2597
      8 CAV        14.7945   52.5780   40.2385 C.ar        1 B65       0.1094
      9 CAO        15.8926   53.1858   39.5939 C.ar        1 B65      -0.0276
     10 CAN        15.0198   51.5401   41.1683 C.ar        1 B65      -0.0354
     11 CAJ        16.3332   51.1392   41.4746 C.ar        1 B65      -0.0762
     12 CAK        17.4213   51.7660   40.8444 C.ar        1 B65      -0.0708
     13 CAT        17.2168   52.7894   39.8855 C.ar        1 B65      -0.0509
     14 CAQ        18.3750   53.4478   39.2206 C.3         1 B65      -0.0214
     15 CAP        18.8163   54.7436   39.9638 C.3         1 B65      -0.0405
     16 CAR        20.2312   55.3118   39.6341 C.3         1 B65      -0.0165
     17 CAW        21.4102   54.2874   39.8277 C.3         1 B65       0.1121
     18 PAX        22.7544   54.8853   40.6110 P.3         1 B65       0.0795
     19 OAB        22.4081   55.4923   41.8774 O.co2       1 B65      -0.5610
     20 OAC        23.6594   53.8067   40.9385 O.co2       1 B65      -0.5610
     21 OAA        23.5317   55.8540   39.8681 O.co2       1 B65      -0.5610
     22 SAY        21.8532   53.4060   38.2888 S.o2        1 B65      -0.1731
     23 OAF        23.4375   53.7231   37.8110 O.co2       1 B65      -0.4830
     24 OAE        20.8137   53.8398   37.0223 O.co2       1 B65      -0.4830
     25 OAD        21.7135   51.7335   38.5037 O.co2       1 B65      -0.4830
     26 H1         14.0023   55.5569   40.3411 H           1 B65       0.0552
     27 H2         12.9136   56.9472   42.0008 H           1 B65       0.0590
     28 H3         11.2169   55.9988   43.4571 H           1 B65       0.0528
     29 H4         10.6289   53.6529   43.2731 H           1 B65       0.0590
     30 H5         11.7094   52.2559   41.6133 H           1 B65       0.0552
     31 H6         15.7184   53.9280   38.9106 H           1 B65       0.0488
     32 H7         14.2286   51.0795   41.6247 H           1 B65       0.0496
     33 H8         16.4934   50.4003   42.1640 H           1 B65       0.0573
     34 H9         18.3685   51.4749   41.0942 H           1 B65       0.0470
     35 H10        18.1293   53.6873   38.1816 H           1 B65       0.0424
     36 H11        19.1898   52.7241   39.1866 H           1 B65       0.0424
     37 H12        18.7869   54.5653   41.0431 H           1 B65       0.0288
     38 H13        18.0765   55.5180   39.7417 H           1 B65       0.0288
     39 H14        20.3642   56.1714   40.2985 H           1 B65       0.0298
     40 H15        20.2395   55.7262   38.6238 H           1 B65       0.0298
     41 H16        21.0550   53.5289   40.5199 H           1 B65       0.0695
@<TRIPOS>BOND
     1     1     2  ar
     2     1     6  ar
     3     2     3  ar
     4     3     4  ar
     5     4     5  ar
     6     5     6  ar
     7     6     7   1
     8     7     8   1
     9     8     9  ar
    10     8    10  ar
    11     9    13  ar
    12    10    11  ar
    13    11    12  ar
    14    12    13  ar
    15    13    14   1
    16    14    15   1
    17    15    16   1
    18    16    17   1
    19    17    18   1
    20    17    22   1
    21    18    19  ar
    22    18    20  ar
    23    18    21  ar
    24    22    23  ar
    25    22    24  ar
    26    22    25  ar
    27     1    26   1
    28     2    27   1
    29     3    28   1
    30     4    29   1
    31     5    30   1
    32     9    31   1
    33    10    32   1
    34    11    33   1
    35    12    34   1
    36    14    35   1
    37    14    36   1
    38    15    37   1
    39    15    38   1
    40    16    39   1
    41    16    40   1
    42    17    41   1
@<TRIPOS>SUBSTRUCTURE
     1  B65      1

