@<TRIPOS>MOLECULE
2zcq_ligand_001
    41    42
SMALL
GAST_HUCK
****
This file was generated by PARSER (from files_GN.cpp)

@<TRIPOS>ATOM
      1 CAL        19.1803   55.9126   35.2194 C.ar        1 B65      -0.0285
      2 CAH        19.4689   57.2044   35.6993 C.ar        1 B65      -0.0697
      3 CAG        18.5562   57.8626   36.5412 C.ar        1 B65      -0.0723
      4 CAI        17.3513   57.2322   36.8976 C.ar        1 B65      -0.0697
      5 CAM        17.0620   55.9405   36.4192 C.ar        1 B65      -0.0285
      6 CAU        17.9815   55.2640   35.5920 C.ar        1 B65       0.1159
      7 OAS        17.6807   54.0303   35.0764 O.3         1 B65      -0.2597
      8 CAV        18.1419   53.0046   35.8663 C.ar        1 B65       0.1094
      9 CAO        19.4350   52.4648   35.6880 C.ar        1 B65      -0.0276
     10 CAN        17.2796   52.4291   36.8232 C.ar        1 B65      -0.0354
     11 CAJ        17.7178   51.3540   37.6189 C.ar        1 B65      -0.0762
     12 CAK        19.0206   50.8440   37.4540 C.ar        1 B65      -0.0708
     13 CAT        19.9009   51.3940   36.4881 C.ar        1 B65      -0.0509
     14 CAQ        21.3044   50.9152   36.3474 C.3         1 B65      -0.0214
     15 CAP        22.3593   51.9481   36.8665 C.3         1 B65      -0.0405
     16 CAR        23.3637   51.4319   37.9454 C.3         1 B65      -0.0165
     17 CAW        24.8666   51.2626   37.5292 C.3         1 B65       0.1121
     18 PAX        25.1487   50.1680   36.2879 P.3         1 B65       0.0795
     19 OAB        26.5369   49.7984   36.1623 O.co2       1 B65      -0.5610
     20 OAC        24.3322   48.9802   36.3883 O.co2       1 B65      -0.5610
     21 OAA        24.8493   50.7996   35.0249 O.co2       1 B65      -0.5610
     22 SAY        25.8380   50.8603   39.0091 S.o2        1 B65      -0.1731
     23 OAF        27.3679   50.2408   38.6099 O.co2       1 B65      -0.4830
     24 OAE        25.0218   49.6960   39.9377 O.co2       1 B65      -0.4830
     25 OAD        26.0401   52.2764   39.9248 O.co2       1 B65      -0.4830
     26 H1         19.8494   55.4485   34.6004 H           1 B65       0.0552
     27 H2         20.3466   57.6614   35.4310 H           1 B65       0.0590
     28 H3         18.7662   58.8017   36.8857 H           1 B65       0.0528
     29 H4         16.6852   57.7116   37.5031 H           1 B65       0.0590
     30 H5         16.1819   55.4899   36.6714 H           1 B65       0.0552
     31 H6         20.0465   52.8799   34.9853 H           1 B65       0.0488
     32 H7         16.3287   52.8010   36.9526 H           1 B65       0.0496
     33 H8         17.0904   50.9487   38.3191 H           1 B65       0.0573
     34 H9         19.3277   50.0804   38.0568 H           1 B65       0.0470
     35 H10        21.4833   50.6968   35.2916 H           1 B65       0.0424
     36 H11        21.4143   49.9664   36.8696 H           1 B65       0.0424
     37 H12        21.8356   52.8038   37.3129 H           1 B65       0.0288
     38 H13        22.9257   52.3362   36.0113 H           1 B65       0.0288
     39 H14        22.9867   50.4889   38.3563 H           1 B65       0.0298
     40 H15        23.3310   52.1605   38.7702 H           1 B65       0.0298
     41 H16        25.2184   52.2459   37.1829 H           1 B65       0.0695
@<TRIPOS>BOND
     1     1     2  ar
     2     1     6  ar
     3     2     3  ar
     4     3     4  ar
     5     4     5  ar
     6     5     6  ar
     7     6     7   1
     8     7     8   1
     9     8     9  ar
    10     8    10  ar
    11     9    13  ar
    12    10    11  ar
    13    11    12  ar
    14    12    13  ar
    15    13    14   1
    16    14    15   1
    17    15    16   1
    18    16    17   1
    19    17    18   1
    20    17    22   1
    21    18    19  ar
    22    18    20  ar
    23    18    21  ar
    24    22    23  ar
    25    22    24  ar
    26    22    25  ar
    27     1    26   1
    28     2    27   1
    29     3    28   1
    30     4    29   1
    31     5    30   1
    32     9    31   1
    33    10    32   1
    34    11    33   1
    35    12    34   1
    36    14    35   1
    37    14    36   1
    38    15    37   1
    39    15    38   1
    40    16    39   1
    41    16    40   1
    42    17    41   1
@<TRIPOS>SUBSTRUCTURE
     1  B65      1

