@<TRIPOS>MOLECULE
2zcq_ligand_046
    41    42
SMALL
GAST_HUCK
****
This file was generated by PARSER (from files_GN.cpp)

@<TRIPOS>ATOM
      1 CAL        25.9334   45.4688   34.2261 C.ar        1 B65      -0.0285
      2 CAH        25.1116   44.9462   33.2099 C.ar        1 B65      -0.0697
      3 CAG        25.3640   45.2671   31.8626 C.ar        1 B65      -0.0723
      4 CAI        26.4557   46.0872   31.5275 C.ar        1 B65      -0.0697
      5 CAM        27.2830   46.6020   32.5425 C.ar        1 B65      -0.0285
      6 CAU        27.0109   46.3173   33.8992 C.ar        1 B65       0.1159
      7 OAS        27.8222   46.8085   34.8871 O.3         1 B65      -0.2597
      8 CAV        27.6331   48.1175   35.2819 C.ar        1 B65       0.1094
      9 CAO        27.9508   48.4448   36.6207 C.ar        1 B65      -0.0276
     10 CAN        27.2549   49.1644   34.4009 C.ar        1 B65      -0.0354
     11 CAJ        27.1992   50.4921   34.8371 C.ar        1 B65      -0.0762
     12 CAK        27.5354   50.8017   36.1666 C.ar        1 B65      -0.0708
     13 CAT        27.9124   49.7866   37.0780 C.ar        1 B65      -0.0509
     14 CAQ        28.2112   50.1413   38.4979 C.3         1 B65      -0.0214
     15 CAP        27.0384   50.0499   39.5301 C.3         1 B65      -0.0405
     16 CAR        25.5926   49.8339   38.9933 C.3         1 B65      -0.0165
     17 CAW        25.0500   50.8624   37.9436 C.3         1 B65       0.1121
     18 PAX        24.3746   52.2473   38.5961 P.3         1 B65       0.0795
     19 OAB        25.3397   52.9474   39.4057 O.co2       1 B65      -0.5610
     20 OAC        23.9972   53.1499   37.5315 O.co2       1 B65      -0.5610
     21 OAA        23.1825   51.9878   39.3671 O.co2       1 B65      -0.5610
     22 SAY        23.9136   50.0623   36.7671 S.o2        1 B65      -0.1731
     23 OAF        24.0475   50.8248   35.2637 O.co2       1 B65      -0.4830
     24 OAE        22.3243   50.1808   37.3311 O.co2       1 B65      -0.4830
     25 OAD        24.3065   48.4306   36.5438 O.co2       1 B65      -0.4830
     26 H1         25.7479   45.2364   35.2032 H           1 B65       0.0552
     27 H2         24.3352   44.3262   33.4441 H           1 B65       0.0590
     28 H3         24.7604   44.8928   31.1279 H           1 B65       0.0528
     29 H4         26.6521   46.3124   30.5504 H           1 B65       0.0590
     30 H5         28.0654   47.2087   32.2931 H           1 B65       0.0552
     31 H6         28.2181   47.6991   37.2665 H           1 B65       0.0488
     32 H7         27.0237   48.9736   33.4283 H           1 B65       0.0496
     33 H8         26.9132   51.2306   34.1932 H           1 B65       0.0573
     34 H9         27.4484   51.7663   36.4687 H           1 B65       0.0470
     35 H10        28.6031   51.1616   38.5398 H           1 B65       0.0424
     36 H11        29.0328   49.5031   38.8344 H           1 B65       0.0424
     37 H12        27.0474   50.9421   40.1598 H           1 B65       0.0288
     38 H13        27.2506   49.2121   40.2000 H           1 B65       0.0288
     39 H14        24.9020   49.7881   39.8437 H           1 B65       0.0298
     40 H15        25.6046   48.8319   38.5620 H           1 B65       0.0298
     41 H16        25.8867   51.2259   37.3362 H           1 B65       0.0695
@<TRIPOS>BOND
     1     1     2  ar
     2     1     6  ar
     3     2     3  ar
     4     3     4  ar
     5     4     5  ar
     6     5     6  ar
     7     6     7   1
     8     7     8   1
     9     8     9  ar
    10     8    10  ar
    11     9    13  ar
    12    10    11  ar
    13    11    12  ar
    14    12    13  ar
    15    13    14   1
    16    14    15   1
    17    15    16   1
    18    16    17   1
    19    17    18   1
    20    17    22   1
    21    18    19  ar
    22    18    20  ar
    23    18    21  ar
    24    22    23  ar
    25    22    24  ar
    26    22    25  ar
    27     1    26   1
    28     2    27   1
    29     3    28   1
    30     4    29   1
    31     5    30   1
    32     9    31   1
    33    10    32   1
    34    11    33   1
    35    12    34   1
    36    14    35   1
    37    14    36   1
    38    15    37   1
    39    15    38   1
    40    16    39   1
    41    16    40   1
    42    17    41   1
@<TRIPOS>SUBSTRUCTURE
     1  B65      1

