@<TRIPOS>MOLECULE
2zcq_ligand_016
    41    42
SMALL
GAST_HUCK
****
This file was generated by PARSER (from files_GN.cpp)

@<TRIPOS>ATOM
      1 CAL        30.7922   47.0955   38.8410 C.ar        1 B65      -0.0285
      2 CAH        31.4052   48.3222   38.5220 C.ar        1 B65      -0.0697
      3 CAG        31.0306   49.0132   37.3547 C.ar        1 B65      -0.0723
      4 CAI        30.0642   48.4639   36.4915 C.ar        1 B65      -0.0697
      5 CAM        29.4553   47.2368   36.8101 C.ar        1 B65      -0.0285
      6 CAU        29.7955   46.5569   38.0006 C.ar        1 B65       0.1159
      7 OAS        29.2055   45.3569   38.3003 O.3         1 B65      -0.2597
      8 CAV        28.0454   45.4967   39.0192 C.ar        1 B65       0.1094
      9 CAO        26.8381   45.8586   38.3810 C.ar        1 B65      -0.0276
     10 CAN        28.0397   45.2299   40.4025 C.ar        1 B65      -0.0354
     11 CAJ        26.8474   45.3306   41.1386 C.ar        1 B65      -0.0762
     12 CAK        25.6587   45.7314   40.5031 C.ar        1 B65      -0.0708
     13 CAT        25.6407   46.0171   39.1179 C.ar        1 B65      -0.0509
     14 CAQ        24.3800   46.4561   38.4550 C.3         1 B65      -0.0214
     15 CAP        23.7855   47.7997   38.9745 C.3         1 B65      -0.0405
     16 CAR        24.6490   49.1001   38.8377 C.3         1 B65      -0.0165
     17 CAW        24.2458   50.0921   37.6853 C.3         1 B65       0.1121
     18 PAX        25.0492   49.8264   36.2412 P.3         1 B65       0.0795
     19 OAB        24.6431   50.7459   35.2095 O.co2       1 B65      -0.5610
     20 OAC        26.4819   49.8964   36.3792 O.co2       1 B65      -0.5610
     21 OAA        24.7281   48.5200   35.7315 O.co2       1 B65      -0.5610
     22 SAY        24.4069   51.8268   38.2145 S.o2        1 B65      -0.1731
     23 OAF        23.8759   52.8681   36.9942 O.co2       1 B65      -0.4830
     24 OAE        26.0078   52.1915   38.6233 O.co2       1 B65      -0.4830
     25 OAD        23.4163   52.0911   39.5592 O.co2       1 B65      -0.4830
     26 H1         31.0714   46.5953   39.6868 H           1 B65       0.0552
     27 H2         32.1264   48.7071   39.1357 H           1 B65       0.0590
     28 H3         31.4709   49.9067   37.1249 H           1 B65       0.0528
     29 H4         29.8112   48.9532   35.6283 H           1 B65       0.0590
     30 H5         28.7642   46.8395   36.1699 H           1 B65       0.0552
     31 H6         26.8397   46.0150   37.3693 H           1 B65       0.0488
     32 H7         28.9053   44.9640   40.8725 H           1 B65       0.0496
     33 H8         26.8503   45.1335   42.1407 H           1 B65       0.0573
     34 H9         24.8027   45.8020   41.0578 H           1 B65       0.0470
     35 H10        23.6387   45.6659   38.6138 H           1 B65       0.0424
     36 H11        24.5130   46.5333   37.3754 H           1 B65       0.0424
     37 H12        23.5500   47.6599   40.0323 H           1 B65       0.0288
     38 H13        22.8240   47.9431   38.4775 H           1 B65       0.0288
     39 H14        25.7109   48.8492   38.7769 H           1 B65       0.0298
     40 H15        24.5425   49.6249   39.7913 H           1 B65       0.0298
     41 H16        23.1829   49.9756   37.4687 H           1 B65       0.0695
@<TRIPOS>BOND
     1     1     2  ar
     2     1     6  ar
     3     2     3  ar
     4     3     4  ar
     5     4     5  ar
     6     5     6  ar
     7     6     7   1
     8     7     8   1
     9     8     9  ar
    10     8    10  ar
    11     9    13  ar
    12    10    11  ar
    13    11    12  ar
    14    12    13  ar
    15    13    14   1
    16    14    15   1
    17    15    16   1
    18    16    17   1
    19    17    18   1
    20    17    22   1
    21    18    19  ar
    22    18    20  ar
    23    18    21  ar
    24    22    23  ar
    25    22    24  ar
    26    22    25  ar
    27     1    26   1
    28     2    27   1
    29     3    28   1
    30     4    29   1
    31     5    30   1
    32     9    31   1
    33    10    32   1
    34    11    33   1
    35    12    34   1
    36    14    35   1
    37    14    36   1
    38    15    37   1
    39    15    38   1
    40    16    39   1
    41    16    40   1
    42    17    41   1
@<TRIPOS>SUBSTRUCTURE
     1  B65      1

