@<TRIPOS>MOLECULE
2zcq_ligand_022
    41    42
SMALL
GAST_HUCK
****
This file was generated by PARSER (from files_GN.cpp)

@<TRIPOS>ATOM
      1 CAL        17.4188   51.1127   39.6001 C.ar        1 B65      -0.0285
      2 CAH        17.2342   50.7231   40.9494 C.ar        1 B65      -0.0697
      3 CAG        16.0085   50.9764   41.5990 C.ar        1 B65      -0.0723
      4 CAI        14.9643   51.6023   40.8943 C.ar        1 B65      -0.0697
      5 CAM        15.1447   51.9826   39.5478 C.ar        1 B65      -0.0285
      6 CAU        16.3593   51.7276   38.8738 C.ar        1 B65       0.1159
      7 OAS        16.4260   52.1730   37.5729 O.3         1 B65      -0.2597
      8 CAV        17.3025   51.5547   36.7446 C.ar        1 B65       0.1094
      9 CAO        18.5979   52.0874   36.6040 C.ar        1 B65      -0.0276
     10 CAN        16.9265   50.4310   35.9766 C.ar        1 B65      -0.0354
     11 CAJ        17.8833   49.7639   35.1781 C.ar        1 B65      -0.0762
     12 CAK        19.2039   50.2544   35.1064 C.ar        1 B65      -0.0708
     13 CAT        19.5657   51.4305   35.8033 C.ar        1 B65      -0.0509
     14 CAQ        20.9702   51.9107   35.8141 C.3         1 B65      -0.0214
     15 CAP        21.7602   51.2863   36.9974 C.3         1 B65      -0.0405
     16 CAR        23.0805   52.0324   37.3563 C.3         1 B65      -0.0165
     17 CAW        24.1184   51.1630   38.1581 C.3         1 B65       0.1121
     18 PAX        24.3090   51.6028   39.7668 P.3         1 B65       0.0795
     19 OAB        23.1645   52.3082   40.3153 O.co2       1 B65      -0.5610
     20 OAC        24.5461   50.4570   40.6121 O.co2       1 B65      -0.5610
     21 OAA        25.4343   52.4938   39.9654 O.co2       1 B65      -0.5610
     22 SAY        25.7301   51.0743   37.3436 S.o2        1 B65      -0.1731
     23 OAF        26.4522   49.5668   37.6693 O.co2       1 B65      -0.4830
     24 OAE        26.7418   52.3144   37.9078 O.co2       1 B65      -0.4830
     25 OAD        25.5570   51.2043   35.6592 O.co2       1 B65      -0.4830
     26 H1         18.3228   50.9291   39.1671 H           1 B65       0.0552
     27 H2         17.9926   50.2679   41.4635 H           1 B65       0.0590
     28 H3         15.8853   50.7095   42.5766 H           1 B65       0.0528
     29 H4         14.0751   51.7946   41.3660 H           1 B65       0.0590
     30 H5         14.3778   52.4387   39.0516 H           1 B65       0.0552
     31 H6         18.8582   52.9067   37.1430 H           1 B65       0.0488
     32 H7         15.9829   50.0522   36.0499 H           1 B65       0.0496
     33 H8         17.6220   48.9290   34.6592 H           1 B65       0.0573
     34 H9         19.8951   49.7382   34.5640 H           1 B65       0.0470
     35 H10        21.0013   53.0071   35.8951 H           1 B65       0.0424
     36 H11        21.4733   51.6541   34.8641 H           1 B65       0.0424
     37 H12        21.9944   50.2464   36.7392 H           1 B65       0.0288
     38 H13        21.1179   51.2756   37.8896 H           1 B65       0.0288
     39 H14        22.8340   52.9448   37.9144 H           1 B65       0.0298
     40 H15        23.5359   52.3635   36.4103 H           1 B65       0.0298
     41 H16        23.7550   50.1262   38.1708 H           1 B65       0.0695
@<TRIPOS>BOND
     1     1     2  ar
     2     1     6  ar
     3     2     3  ar
     4     3     4  ar
     5     4     5  ar
     6     5     6  ar
     7     6     7   1
     8     7     8   1
     9     8     9  ar
    10     8    10  ar
    11     9    13  ar
    12    10    11  ar
    13    11    12  ar
    14    12    13  ar
    15    13    14   1
    16    14    15   1
    17    15    16   1
    18    16    17   1
    19    17    18   1
    20    17    22   1
    21    18    19  ar
    22    18    20  ar
    23    18    21  ar
    24    22    23  ar
    25    22    24  ar
    26    22    25  ar
    27     1    26   1
    28     2    27   1
    29     3    28   1
    30     4    29   1
    31     5    30   1
    32     9    31   1
    33    10    32   1
    34    11    33   1
    35    12    34   1
    36    14    35   1
    37    14    36   1
    38    15    37   1
    39    15    38   1
    40    16    39   1
    41    16    40   1
    42    17    41   1
@<TRIPOS>SUBSTRUCTURE
     1  B65      1

