@<TRIPOS>MOLECULE
2zcq_ligand_033
    41    42
SMALL
GAST_HUCK
****
This file was generated by PARSER (from files_GN.cpp)

@<TRIPOS>ATOM
      1 CAL        26.2896   49.8462   35.4252 C.ar        1 B65      -0.0285
      2 CAH        27.6073   49.8706   34.9254 C.ar        1 B65      -0.0697
      3 CAG        28.3957   48.7019   34.9613 C.ar        1 B65      -0.0723
      4 CAI        27.8659   47.5164   35.5067 C.ar        1 B65      -0.0697
      5 CAM        26.5509   47.4967   36.0100 C.ar        1 B65      -0.0285
      6 CAU        25.7621   48.6686   35.9998 C.ar        1 B65       0.1159
      7 OAS        24.4686   48.6521   36.4585 O.3         1 B65      -0.2597
      8 CAV        24.3489   48.9827   37.7791 C.ar        1 B65       0.1094
      9 CAO        24.6076   50.2961   38.2277 C.ar        1 B65      -0.0276
     10 CAN        23.9231   48.0110   38.7023 C.ar        1 B65      -0.0354
     11 CAJ        23.7933   48.3352   40.0579 C.ar        1 B65      -0.0762
     12 CAK        24.0951   49.6257   40.5150 C.ar        1 B65      -0.0708
     13 CAT        24.5241   50.6135   39.6052 C.ar        1 B65      -0.0509
     14 CAQ        25.0305   51.9336   40.0908 C.3         1 B65      -0.0214
     15 CAP        24.0052   53.1207   40.0008 C.3         1 B65      -0.0405
     16 CAR        23.3264   53.5100   41.3567 C.3         1 B65      -0.0165
     17 CAW        22.6636   54.9308   41.4903 C.3         1 B65       0.1121
     18 PAX        21.9826   55.5288   40.0896 P.3         1 B65       0.0795
     19 OAB        22.9502   55.4631   39.0199 O.co2       1 B65      -0.5610
     20 OAC        20.8230   54.7517   39.7139 O.co2       1 B65      -0.5610
     21 OAA        21.5699   56.9105   40.2234 O.co2       1 B65      -0.5610
     22 SAY        23.7796   56.1498   42.2631 S.o2        1 B65      -0.1731
     23 OAF        24.7962   56.8377   41.0985 O.co2       1 B65      -0.4830
     24 OAE        24.7332   55.4002   43.4450 O.co2       1 B65      -0.4830
     25 OAD        22.9015   57.3928   43.0109 O.co2       1 B65      -0.4830
     26 H1         25.7201   50.6915   35.3837 H           1 B65       0.0552
     27 H2         27.9844   50.7326   34.5250 H           1 B65       0.0590
     28 H3         29.3479   48.7217   34.5905 H           1 B65       0.0528
     29 H4         28.4383   46.6702   35.5210 H           1 B65       0.0590
     30 H5         26.1771   46.6264   36.3965 H           1 B65       0.0552
     31 H6         24.9070   51.0157   37.5616 H           1 B65       0.0488
     32 H7         23.7206   47.0688   38.3783 H           1 B65       0.0496
     33 H8         23.5081   47.6227   40.7245 H           1 B65       0.0573
     34 H9         24.0244   49.8375   41.5174 H           1 B65       0.0470
     35 H10        25.8961   52.2108   39.4826 H           1 B65       0.0424
     36 H11        25.4081   51.8631   41.1197 H           1 B65       0.0424
     37 H12        23.2290   52.8813   39.2701 H           1 B65       0.0288
     38 H13        24.5194   54.0167   39.6343 H           1 B65       0.0288
     39 H14        24.0820   53.4263   42.1499 H           1 B65       0.0298
     40 H15        22.5678   52.7520   41.5805 H           1 B65       0.0298
     41 H16        21.8413   54.8223   42.2073 H           1 B65       0.0695
@<TRIPOS>BOND
     1     1     2  ar
     2     1     6  ar
     3     2     3  ar
     4     3     4  ar
     5     4     5  ar
     6     5     6  ar
     7     6     7   1
     8     7     8   1
     9     8     9  ar
    10     8    10  ar
    11     9    13  ar
    12    10    11  ar
    13    11    12  ar
    14    12    13  ar
    15    13    14   1
    16    14    15   1
    17    15    16   1
    18    16    17   1
    19    17    18   1
    20    17    22   1
    21    18    19  ar
    22    18    20  ar
    23    18    21  ar
    24    22    23  ar
    25    22    24  ar
    26    22    25  ar
    27     1    26   1
    28     2    27   1
    29     3    28   1
    30     4    29   1
    31     5    30   1
    32     9    31   1
    33    10    32   1
    34    11    33   1
    35    12    34   1
    36    14    35   1
    37    14    36   1
    38    15    37   1
    39    15    38   1
    40    16    39   1
    41    16    40   1
    42    17    41   1
@<TRIPOS>SUBSTRUCTURE
     1  B65      1

