@<TRIPOS>MOLECULE
2zcq_ligand_037
    41    42
SMALL
GAST_HUCK
****
This file was generated by PARSER (from files_GN.cpp)

@<TRIPOS>ATOM
      1 CAL        17.1793   51.2209   39.5350 C.ar        1 B65      -0.0285
      2 CAH        17.1638   50.8490   40.8914 C.ar        1 B65      -0.0697
      3 CAG        16.0007   51.0345   41.6629 C.ar        1 B65      -0.0723
      4 CAI        14.8557   51.6006   41.0775 C.ar        1 B65      -0.0697
      5 CAM        14.8647   51.9585   39.7155 C.ar        1 B65      -0.0285
      6 CAU        16.0190   51.7522   38.9261 C.ar        1 B65       0.1159
      7 OAS        15.9831   52.1277   37.6058 O.3         1 B65      -0.2597
      8 CAV        16.5276   51.2115   36.7380 C.ar        1 B65       0.1094
      9 CAO        17.7387   51.5119   36.0790 C.ar        1 B65      -0.0276
     10 CAN        15.8877   49.9813   36.4823 C.ar        1 B65      -0.0354
     11 CAJ        16.4724   49.0484   35.6121 C.ar        1 B65      -0.0762
     12 CAK        17.6743   49.3608   34.9548 C.ar        1 B65      -0.0708
     13 CAT        18.3348   50.5946   35.1804 C.ar        1 B65      -0.0509
     14 CAQ        19.6028   50.9149   34.4603 C.3         1 B65      -0.0214
     15 CAP        20.8911   50.7723   35.3338 C.3         1 B65      -0.0405
     16 CAR        21.4639   52.0989   35.9439 C.3         1 B65      -0.0165
     17 CAW        21.6840   52.0698   37.4936 C.3         1 B65       0.1121
     18 PAX        21.5640   53.5502   38.2676 P.3         1 B65       0.0795
     19 OAB        22.8199   54.2540   38.4221 O.co2       1 B65      -0.5610
     20 OAC        20.6588   54.4546   37.5892 O.co2       1 B65      -0.5610
     21 OAA        21.0064   53.3991   39.5968 O.co2       1 B65      -0.5610
     22 SAY        23.2438   51.2331   37.9261 S.o2        1 B65      -0.1731
     23 OAF        23.4210   49.7979   37.0512 O.co2       1 B65      -0.4830
     24 OAE        23.2432   50.8621   39.5747 O.co2       1 B65      -0.4830
     25 OAD        24.5806   52.2139   37.6083 O.co2       1 B65      -0.4830
     26 H1         18.0317   51.0925   38.9913 H           1 B65       0.0552
     27 H2         18.0007   50.4556   41.3213 H           1 B65       0.0590
     28 H3         15.9973   50.7626   42.6475 H           1 B65       0.0528
     29 H4         14.0168   51.7498   41.6422 H           1 B65       0.0590
     30 H5         14.0229   52.3664   39.2974 H           1 B65       0.0552
     31 H6         18.1893   52.4091   36.2644 H           1 B65       0.0488
     32 H7         15.0058   49.7518   36.9437 H           1 B65       0.0496
     33 H8         16.0201   48.1442   35.4448 H           1 B65       0.0573
     34 H9         18.0742   48.6716   34.3120 H           1 B65       0.0470
     35 H10        19.5280   51.9174   34.0368 H           1 B65       0.0424
     36 H11        19.7061   50.2435   33.6012 H           1 B65       0.0424
     37 H12        21.6754   50.3256   34.7125 H           1 B65       0.0288
     38 H13        20.6944   50.0367   36.1223 H           1 B65       0.0288
     39 H14        20.7821   52.9142   35.6849 H           1 B65       0.0298
     40 H15        22.4115   52.3319   35.4509 H           1 B65       0.0298
     41 H16        20.8859   51.4522   37.9081 H           1 B65       0.0695
@<TRIPOS>BOND
     1     1     2  ar
     2     1     6  ar
     3     2     3  ar
     4     3     4  ar
     5     4     5  ar
     6     5     6  ar
     7     6     7   1
     8     7     8   1
     9     8     9  ar
    10     8    10  ar
    11     9    13  ar
    12    10    11  ar
    13    11    12  ar
    14    12    13  ar
    15    13    14   1
    16    14    15   1
    17    15    16   1
    18    16    17   1
    19    17    18   1
    20    17    22   1
    21    18    19  ar
    22    18    20  ar
    23    18    21  ar
    24    22    23  ar
    25    22    24  ar
    26    22    25  ar
    27     1    26   1
    28     2    27   1
    29     3    28   1
    30     4    29   1
    31     5    30   1
    32     9    31   1
    33    10    32   1
    34    11    33   1
    35    12    34   1
    36    14    35   1
    37    14    36   1
    38    15    37   1
    39    15    38   1
    40    16    39   1
    41    16    40   1
    42    17    41   1
@<TRIPOS>SUBSTRUCTURE
     1  B65      1

