@<TRIPOS>MOLECULE
2zcq_ligand_000
    41    42
SMALL
GAST_HUCK
****
This file was generated by PARSER (from files_GN.cpp)

@<TRIPOS>ATOM
      1 CAL        17.2487   51.1208   39.6304 C.ar        1 B65      -0.0285
      2 CAH        17.1338   50.7729   40.9920 C.ar        1 B65      -0.0697
      3 CAG        15.9404   51.0265   41.6904 C.ar        1 B65      -0.0723
      4 CAI        14.8501   51.6091   41.0198 C.ar        1 B65      -0.0697
      5 CAM        14.9540   51.9375   39.6535 C.ar        1 B65      -0.0285
      6 CAU        16.1432   51.6822   38.9405 C.ar        1 B65       0.1159
      7 OAS        16.1923   52.1076   37.6365 O.3         1 B65      -0.2597
      8 CAV        17.1958   51.5670   36.8750 C.ar        1 B65       0.1094
      9 CAO        18.4287   52.2469   36.7857 C.ar        1 B65      -0.0276
     10 CAN        16.9863   50.4141   36.0902 C.ar        1 B65      -0.0354
     11 CAJ        18.0120   49.9340   35.2489 C.ar        1 B65      -0.0762
     12 CAK        19.2493   50.6098   35.1844 C.ar        1 B65      -0.0708
     13 CAT        19.4737   51.7781   35.9510 C.ar        1 B65      -0.0509
     14 CAQ        20.7382   52.5574   35.8166 C.3         1 B65      -0.0214
     15 CAP        22.0697   51.7614   35.9692 C.3         1 B65      -0.0405
     16 CAR        22.6845   51.7091   37.4096 C.3         1 B65      -0.0165
     17 CAW        24.2397   51.5151   37.4782 C.3         1 B65       0.1121
     18 PAX        24.8724   50.3829   36.4195 P.3         1 B65       0.0795
     19 OAB        24.1635   49.1324   36.4886 O.co2       1 B65      -0.5610
     20 OAC        24.7603   50.8844   35.0730 O.co2       1 B65      -0.5610
     21 OAA        26.2763   50.1309   36.6376 O.co2       1 B65      -0.5610
     22 SAY        24.7753   51.1851   39.1908 S.o2        1 B65      -0.1731
     23 OAF        25.7570   52.4664   39.7128 O.co2       1 B65      -0.4830
     24 OAE        25.6467   49.7339   39.3177 O.co2       1 B65      -0.4830
     25 OAD        23.4465   51.0739   40.2350 O.co2       1 B65      -0.4830
     26 H1         18.1390   50.9610   39.1469 H           1 B65       0.0552
     27 H2         17.9303   50.3529   41.4813 H           1 B65       0.0590
     28 H3         15.8696   50.7964   42.6806 H           1 B65       0.0528
     29 H4         13.9859   51.8039   41.5270 H           1 B65       0.0590
     30 H5         14.1566   52.3640   39.1730 H           1 B65       0.0552
     31 H6         18.5494   53.1099   37.3195 H           1 B65       0.0488
     32 H7         16.0923   49.9208   36.1312 H           1 B65       0.0496
     33 H8         17.8519   49.0943   34.6803 H           1 B65       0.0573
     34 H9         19.9653   50.2715   34.5363 H           1 B65       0.0470
     35 H10        20.7610   53.3789   36.5377 H           1 B65       0.0424
     36 H11        20.7277   53.0209   34.8296 H           1 B65       0.0424
     37 H12        22.8029   52.2343   35.3020 H           1 B65       0.0288
     38 H13        21.9056   50.7383   35.6072 H           1 B65       0.0288
     39 H14        22.1872   50.9042   37.9616 H           1 B65       0.0298
     40 H15        22.4417   52.6509   37.9113 H           1 B65       0.0298
     41 H16        24.6951   52.4717   37.2074 H           1 B65       0.0695
@<TRIPOS>BOND
     1     1     2  ar
     2     1     6  ar
     3     2     3  ar
     4     3     4  ar
     5     4     5  ar
     6     5     6  ar
     7     6     7   1
     8     7     8   1
     9     8     9  ar
    10     8    10  ar
    11     9    13  ar
    12    10    11  ar
    13    11    12  ar
    14    12    13  ar
    15    13    14   1
    16    14    15   1
    17    15    16   1
    18    16    17   1
    19    17    18   1
    20    17    22   1
    21    18    19  ar
    22    18    20  ar
    23    18    21  ar
    24    22    23  ar
    25    22    24  ar
    26    22    25  ar
    27     1    26   1
    28     2    27   1
    29     3    28   1
    30     4    29   1
    31     5    30   1
    32     9    31   1
    33    10    32   1
    34    11    33   1
    35    12    34   1
    36    14    35   1
    37    14    36   1
    38    15    37   1
    39    15    38   1
    40    16    39   1
    41    16    40   1
    42    17    41   1
@<TRIPOS>SUBSTRUCTURE
     1  B65      1

