@<TRIPOS>MOLECULE
2zcq_ligand_031
    41    42
SMALL
GAST_HUCK
****
This file was generated by PARSER (from files_GN.cpp)

@<TRIPOS>ATOM
      1 CAL        16.5705   56.8462   36.0024 C.ar        1 B65      -0.0285
      2 CAH        17.1358   57.9244   36.7051 C.ar        1 B65      -0.0697
      3 CAG        18.5029   58.2226   36.5537 C.ar        1 B65      -0.0723
      4 CAI        19.3021   57.4413   35.6985 C.ar        1 B65      -0.0697
      5 CAM        18.7396   56.3534   35.0063 C.ar        1 B65      -0.0285
      6 CAU        17.3725   56.0362   35.1681 C.ar        1 B65       0.1159
      7 OAS        16.8124   54.9931   34.4778 O.3         1 B65      -0.2597
      8 CAV        16.6875   53.8749   35.2606 C.ar        1 B65       0.1094
      9 CAO        17.6671   52.8667   35.1946 C.ar        1 B65      -0.0276
     10 CAN        15.5621   53.6916   36.0869 C.ar        1 B65      -0.0354
     11 CAJ        15.4633   52.5488   36.9008 C.ar        1 B65      -0.0762
     12 CAK        16.4888   51.5843   36.8884 C.ar        1 B65      -0.0708
     13 CAT        17.6084   51.7290   36.0311 C.ar        1 B65      -0.0509
     14 CAQ        18.7055   50.7224   36.0264 C.3         1 B65      -0.0214
     15 CAP        19.9616   51.1527   36.8421 C.3         1 B65      -0.0405
     16 CAR        20.8733   52.2811   36.2303 C.3         1 B65      -0.0165
     17 CAW        22.2931   51.8742   35.7324 C.3         1 B65       0.1121
     18 PAX        22.2985   50.9807   34.3157 P.3         1 B65       0.0795
     19 OAB        23.6329   50.5469   33.9828 O.co2       1 B65      -0.5610
     20 OAC        21.4557   49.8129   34.3815 O.co2       1 B65      -0.5610
     21 OAA        21.8382   51.7603   33.1944 O.co2       1 B65      -0.5610
     22 SAY        23.3117   51.1454   37.0555 S.o2        1 B65      -0.1731
     23 OAF        24.8102   51.9304   37.1573 O.co2       1 B65      -0.4830
     24 OAE        23.5561   49.4956   36.7670 O.co2       1 B65      -0.4830
     25 OAD        22.5303   51.3178   38.5461 O.co2       1 B65      -0.4830
     26 H1         15.5723   56.6462   36.1051 H           1 B65       0.0552
     27 H2         16.5459   58.4996   37.3103 H           1 B65       0.0590
     28 H3         18.9086   59.0173   37.0497 H           1 B65       0.0528
     29 H4         20.2873   57.6703   35.5669 H           1 B65       0.0590
     30 H5         19.3275   55.7954   34.3844 H           1 B65       0.0552
     31 H6         18.4226   52.9699   34.5211 H           1 B65       0.0488
     32 H7         14.8096   54.3866   36.0969 H           1 B65       0.0496
     33 H8         14.6512   52.4324   37.5163 H           1 B65       0.0573
     34 H9         16.4109   50.7753   37.5116 H           1 B65       0.0470
     35 H10        18.9930   50.4787   35.0011 H           1 B65       0.0424
     36 H11        18.3360   49.7866   36.4632 H           1 B65       0.0424
     37 H12        20.5594   50.2507   36.9984 H           1 B65       0.0288
     38 H13        19.6322   51.4576   37.8434 H           1 B65       0.0288
     39 H14        20.9929   53.0615   36.9853 H           1 B65       0.0298
     40 H15        20.3720   52.7694   35.3885 H           1 B65       0.0298
     41 H16        22.8070   52.7986   35.4688 H           1 B65       0.0695
@<TRIPOS>BOND
     1     1     2  ar
     2     1     6  ar
     3     2     3  ar
     4     3     4  ar
     5     4     5  ar
     6     5     6  ar
     7     6     7   1
     8     7     8   1
     9     8     9  ar
    10     8    10  ar
    11     9    13  ar
    12    10    11  ar
    13    11    12  ar
    14    12    13  ar
    15    13    14   1
    16    14    15   1
    17    15    16   1
    18    16    17   1
    19    17    18   1
    20    17    22   1
    21    18    19  ar
    22    18    20  ar
    23    18    21  ar
    24    22    23  ar
    25    22    24  ar
    26    22    25  ar
    27     1    26   1
    28     2    27   1
    29     3    28   1
    30     4    29   1
    31     5    30   1
    32     9    31   1
    33    10    32   1
    34    11    33   1
    35    12    34   1
    36    14    35   1
    37    14    36   1
    38    15    37   1
    39    15    38   1
    40    16    39   1
    41    16    40   1
    42    17    41   1
@<TRIPOS>SUBSTRUCTURE
     1  B65      1

