@<TRIPOS>MOLECULE
2zcq_ligand_040
    41    42
SMALL
GAST_HUCK
****
This file was generated by PARSER (from files_GN.cpp)

@<TRIPOS>ATOM
      1 CAL        26.6913   49.2256   36.7040 C.ar        1 B65      -0.0285
      2 CAH        27.7711   49.8471   36.0473 C.ar        1 B65      -0.0697
      3 CAG        27.5444   50.6104   34.8875 C.ar        1 B65      -0.0723
      4 CAI        26.2377   50.7596   34.3884 C.ar        1 B65      -0.0697
      5 CAM        25.1578   50.1386   35.0446 C.ar        1 B65      -0.0285
      6 CAU        25.3744   49.3864   36.2176 C.ar        1 B65       0.1159
      7 OAS        24.2853   48.8440   36.8561 O.3         1 B65      -0.2597
      8 CAV        24.2687   48.9989   38.2228 C.ar        1 B65       0.1094
      9 CAO        24.2417   50.2565   38.8615 C.ar        1 B65      -0.0276
     10 CAN        24.1874   47.8331   39.0114 C.ar        1 B65      -0.0354
     11 CAJ        24.1197   47.9262   40.4140 C.ar        1 B65      -0.0762
     12 CAK        24.1038   49.1883   41.0360 C.ar        1 B65      -0.0708
     13 CAT        24.1668   50.3734   40.2705 C.ar        1 B65      -0.0509
     14 CAQ        24.1988   51.7180   40.9020 C.3         1 B65      -0.0214
     15 CAP        23.7091   52.8659   39.9667 C.3         1 B65      -0.0405
     16 CAR        23.0241   54.0301   40.7407 C.3         1 B65      -0.0165
     17 CAW        22.3584   55.1512   39.8700 C.3         1 B65       0.1121
     18 PAX        22.4768   56.6727   40.5615 P.3         1 B65       0.0795
     19 OAB        21.2492   57.4389   40.6807 O.co2       1 B65      -0.5610
     20 OAC        23.0170   56.6707   41.9048 O.co2       1 B65      -0.5610
     21 OAA        23.3859   57.5113   39.8087 O.co2       1 B65      -0.5610
     22 SAY        20.6221   54.7775   39.4769 S.o2        1 B65      -0.1731
     23 OAF        20.0187   55.9467   38.4145 O.co2       1 B65      -0.4830
     24 OAE        19.7161   54.7928   40.9037 O.co2       1 B65      -0.4830
     25 OAD        20.4581   53.2712   38.7300 O.co2       1 B65      -0.4830
     26 H1         26.8572   48.6798   37.5522 H           1 B65       0.0552
     27 H2         28.7198   49.7472   36.4182 H           1 B65       0.0590
     28 H3         28.3283   51.0602   34.4081 H           1 B65       0.0528
     29 H4         26.0745   51.3196   33.5459 H           1 B65       0.0590
     30 H5         24.2079   50.2629   34.6819 H           1 B65       0.0552
     31 H6         24.2874   51.1019   38.2933 H           1 B65       0.0488
     32 H7         24.1896   46.9095   38.5698 H           1 B65       0.0496
     33 H8         24.0898   47.0770   40.9845 H           1 B65       0.0573
     34 H9         24.0492   49.2319   42.0576 H           1 B65       0.0470
     35 H10        25.2287   51.9283   41.2039 H           1 B65       0.0424
     36 H11        23.5941   51.7121   41.8142 H           1 B65       0.0424
     37 H12        23.0051   52.4674   39.2380 H           1 B65       0.0288
     38 H13        24.5604   53.2550   39.4055 H           1 B65       0.0288
     39 H14        23.7936   54.4805   41.3784 H           1 B65       0.0298
     40 H15        22.2592   53.6025   41.3979 H           1 B65       0.0298
     41 H16        22.8840   55.1949   38.9125 H           1 B65       0.0695
@<TRIPOS>BOND
     1     1     2  ar
     2     1     6  ar
     3     2     3  ar
     4     3     4  ar
     5     4     5  ar
     6     5     6  ar
     7     6     7   1
     8     7     8   1
     9     8     9  ar
    10     8    10  ar
    11     9    13  ar
    12    10    11  ar
    13    11    12  ar
    14    12    13  ar
    15    13    14   1
    16    14    15   1
    17    15    16   1
    18    16    17   1
    19    17    18   1
    20    17    22   1
    21    18    19  ar
    22    18    20  ar
    23    18    21  ar
    24    22    23  ar
    25    22    24  ar
    26    22    25  ar
    27     1    26   1
    28     2    27   1
    29     3    28   1
    30     4    29   1
    31     5    30   1
    32     9    31   1
    33    10    32   1
    34    11    33   1
    35    12    34   1
    36    14    35   1
    37    14    36   1
    38    15    37   1
    39    15    38   1
    40    16    39   1
    41    16    40   1
    42    17    41   1
@<TRIPOS>SUBSTRUCTURE
     1  B65      1

