@<TRIPOS>MOLECULE
2zcq_ligand_026
    41    42
SMALL
GAST_HUCK
****
This file was generated by PARSER (from files_GN.cpp)

@<TRIPOS>ATOM
      1 CAL        15.0317   55.7534   40.6068 C.ar        1 B65      -0.0285
      2 CAH        14.8999   56.2963   41.8990 C.ar        1 B65      -0.0697
      3 CAG        14.7785   57.6871   42.0683 C.ar        1 B65      -0.0723
      4 CAI        14.7633   58.5332   40.9441 C.ar        1 B65      -0.0697
      5 CAM        14.8998   57.9920   39.6529 C.ar        1 B65      -0.0285
      6 CAU        15.0470   56.6003   39.4777 C.ar        1 B65       0.1159
      7 OAS        15.1997   56.0632   38.2270 O.3         1 B65      -0.2597
      8 CAV        16.4741   56.2385   37.7497 C.ar        1 B65       0.1094
      9 CAO        17.5547   55.5073   38.2876 C.ar        1 B65      -0.0276
     10 CAN        16.7093   57.1249   36.6796 C.ar        1 B65      -0.0354
     11 CAJ        18.0113   57.3093   36.1851 C.ar        1 B65      -0.0762
     12 CAK        19.0899   56.6036   36.7566 C.ar        1 B65      -0.0708
     13 CAT        18.8737   55.6944   37.8194 C.ar        1 B65      -0.0509
     14 CAQ        19.9788   54.8938   38.4160 C.3         1 B65      -0.0214
     15 CAP        20.2084   55.1557   39.9411 C.3         1 B65      -0.0405
     16 CAR        21.5070   55.9554   40.3166 C.3         1 B65      -0.0165
     17 CAW        22.4349   55.1999   41.3236 C.3         1 B65       0.1121
     18 PAX        23.5477   56.1861   42.0803 P.3         1 B65       0.0795
     19 OAB        24.4554   56.7552   41.1138 O.co2       1 B65      -0.5610
     20 OAC        22.9603   57.2943   42.7926 O.co2       1 B65      -0.5610
     21 OAA        24.3540   55.4637   43.0346 O.co2       1 B65      -0.5610
     22 SAY        23.2715   53.7774   40.5280 S.o2        1 B65      -0.1731
     23 OAF        23.5216   52.5590   41.6777 O.co2       1 B65      -0.4830
     24 OAE        24.7677   54.2443   39.8883 O.co2       1 B65      -0.4830
     25 OAD        22.3460   53.1357   39.2637 O.co2       1 B65      -0.4830
     26 H1         15.1248   54.7409   40.4923 H           1 B65       0.0552
     27 H2         14.9046   55.6829   42.7160 H           1 B65       0.0590
     28 H3         14.6899   58.0793   43.0075 H           1 B65       0.0528
     29 H4         14.6722   59.5450   41.0637 H           1 B65       0.0590
     30 H5         14.9025   58.6148   38.8429 H           1 B65       0.0552
     31 H6         17.3734   54.8424   39.0414 H           1 B65       0.0488
     32 H7         15.9300   57.6420   36.2627 H           1 B65       0.0496
     33 H8         18.1765   57.9490   35.4039 H           1 B65       0.0573
     34 H9         20.0272   56.7495   36.3741 H           1 B65       0.0470
     35 H10        20.9056   55.0387   37.8594 H           1 B65       0.0424
     36 H11        19.7126   53.8411   38.2753 H           1 B65       0.0424
     37 H12        20.2249   54.1775   40.4326 H           1 B65       0.0288
     38 H13        19.3441   55.6750   40.3720 H           1 B65       0.0288
     39 H14        21.1802   56.9086   40.7486 H           1 B65       0.0298
     40 H15        22.0841   56.2069   39.4202 H           1 B65       0.0298
     41 H16        21.8047   54.7873   42.1117 H           1 B65       0.0695
@<TRIPOS>BOND
     1     1     2  ar
     2     1     6  ar
     3     2     3  ar
     4     3     4  ar
     5     4     5  ar
     6     5     6  ar
     7     6     7   1
     8     7     8   1
     9     8     9  ar
    10     8    10  ar
    11     9    13  ar
    12    10    11  ar
    13    11    12  ar
    14    12    13  ar
    15    13    14   1
    16    14    15   1
    17    15    16   1
    18    16    17   1
    19    17    18   1
    20    17    22   1
    21    18    19  ar
    22    18    20  ar
    23    18    21  ar
    24    22    23  ar
    25    22    24  ar
    26    22    25  ar
    27     1    26   1
    28     2    27   1
    29     3    28   1
    30     4    29   1
    31     5    30   1
    32     9    31   1
    33    10    32   1
    34    11    33   1
    35    12    34   1
    36    14    35   1
    37    14    36   1
    38    15    37   1
    39    15    38   1
    40    16    39   1
    41    16    40   1
    42    17    41   1
@<TRIPOS>SUBSTRUCTURE
     1  B65      1

