@<TRIPOS>MOLECULE
2zcq_ligand_025
    41    42
SMALL
GAST_HUCK
****
This file was generated by PARSER (from files_GN.cpp)

@<TRIPOS>ATOM
      1 CAL        24.2395   48.0900   41.9653 C.ar        1 B65      -0.0285
      2 CAH        23.9819   49.4670   42.1244 C.ar        1 B65      -0.0697
      3 CAG        23.8417   50.2924   40.9939 C.ar        1 B65      -0.0723
      4 CAI        23.9512   49.7407   39.7028 C.ar        1 B65      -0.0697
      5 CAM        24.2010   48.3667   39.5432 C.ar        1 B65      -0.0285
      6 CAU        24.3677   47.5346   40.6742 C.ar        1 B65       0.1159
      7 OAS        24.5982   46.1864   40.5379 O.3         1 B65      -0.2597
      8 CAV        25.9220   45.9347   40.2952 C.ar        1 B65       0.1094
      9 CAO        26.3730   45.7891   38.9672 C.ar        1 B65      -0.0276
     10 CAN        26.8362   45.8006   41.3614 C.ar        1 B65      -0.0354
     11 CAJ        28.1993   45.5779   41.0931 C.ar        1 B65      -0.0762
     12 CAK        28.6549   45.4937   39.7623 C.ar        1 B65      -0.0708
     13 CAT        27.7442   45.5953   38.6809 C.ar        1 B65      -0.0509
     14 CAQ        28.2022   45.4447   37.2699 C.3         1 B65      -0.0214
     15 CAP        28.1123   46.7122   36.3690 C.3         1 B65      -0.0405
     16 CAR        26.7592   47.4704   36.4134 C.3         1 B65      -0.0165
     17 CAW        26.5619   48.5860   35.3259 C.3         1 B65       0.1121
     18 PAX        25.4305   49.7174   35.8248 P.3         1 B65       0.0795
     19 OAB        25.9861   50.5228   36.8860 O.co2       1 B65      -0.5610
     20 OAC        25.0001   50.6481   34.8091 O.co2       1 B65      -0.5610
     21 OAA        24.2501   49.0973   36.3707 O.co2       1 B65      -0.5610
     22 SAY        26.1235   47.8683   33.7091 S.o2        1 B65      -0.1731
     23 OAF        25.1194   48.8925   32.8116 O.co2       1 B65      -0.4830
     24 OAE        25.3052   46.4038   33.9271 O.co2       1 B65      -0.4830
     25 OAD        27.5284   47.5948   32.7997 O.co2       1 B65      -0.4830
     26 H1         24.3304   47.4942   42.7918 H           1 B65       0.0552
     27 H2         23.8964   49.8654   43.0609 H           1 B65       0.0590
     28 H3         23.6548   51.2897   41.1088 H           1 B65       0.0528
     29 H4         23.8469   50.3389   38.8810 H           1 B65       0.0590
     30 H5         24.2665   47.9698   38.6008 H           1 B65       0.0552
     31 H6         25.6963   45.8170   38.2002 H           1 B65       0.0488
     32 H7         26.5073   45.8730   42.3346 H           1 B65       0.0496
     33 H8         28.8600   45.4960   41.8689 H           1 B65       0.0573
     34 H9         29.6549   45.3451   39.5908 H           1 B65       0.0470
     35 H10        27.6269   44.6387   36.8068 H           1 B65       0.0424
     36 H11        29.2445   45.1134   37.2544 H           1 B65       0.0424
     37 H12        28.2984   46.3800   35.3462 H           1 B65       0.0288
     38 H13        28.9175   47.4013   36.6384 H           1 B65       0.0288
     39 H14        26.6852   47.9021   37.4234 H           1 B65       0.0298
     40 H15        25.9428   46.7494   36.3160 H           1 B65       0.0298
     41 H16        27.5085   49.1243   35.1958 H           1 B65       0.0695
@<TRIPOS>BOND
     1     1     2  ar
     2     1     6  ar
     3     2     3  ar
     4     3     4  ar
     5     4     5  ar
     6     5     6  ar
     7     6     7   1
     8     7     8   1
     9     8     9  ar
    10     8    10  ar
    11     9    13  ar
    12    10    11  ar
    13    11    12  ar
    14    12    13  ar
    15    13    14   1
    16    14    15   1
    17    15    16   1
    18    16    17   1
    19    17    18   1
    20    17    22   1
    21    18    19  ar
    22    18    20  ar
    23    18    21  ar
    24    22    23  ar
    25    22    24  ar
    26    22    25  ar
    27     1    26   1
    28     2    27   1
    29     3    28   1
    30     4    29   1
    31     5    30   1
    32     9    31   1
    33    10    32   1
    34    11    33   1
    35    12    34   1
    36    14    35   1
    37    14    36   1
    38    15    37   1
    39    15    38   1
    40    16    39   1
    41    16    40   1
    42    17    41   1
@<TRIPOS>SUBSTRUCTURE
     1  B65      1

