@<TRIPOS>MOLECULE
2zcq_ligand_035
    41    42
SMALL
GAST_HUCK
****
This file was generated by PARSER (from files_GN.cpp)

@<TRIPOS>ATOM
      1 CAL        28.8814   51.7796   41.6376 C.ar        1 B65      -0.0285
      2 CAH        30.0823   51.6668   40.9125 C.ar        1 B65      -0.0697
      3 CAG        31.3147   51.6144   41.5942 C.ar        1 B65      -0.0723
      4 CAI        31.3411   51.6741   43.0008 C.ar        1 B65      -0.0697
      5 CAM        30.1372   51.7842   43.7236 C.ar        1 B65      -0.0285
      6 CAU        28.9005   51.8322   43.0484 C.ar        1 B65       0.1159
      7 OAS        27.7493   52.0062   43.7670 O.3         1 B65      -0.2597
      8 CAV        26.9443   50.8978   43.7556 C.ar        1 B65       0.1094
      9 CAO        25.8210   50.8669   42.8975 C.ar        1 B65      -0.0276
     10 CAN        27.1711   49.8259   44.6427 C.ar        1 B65      -0.0354
     11 CAJ        26.3072   48.7189   44.6463 C.ar        1 B65      -0.0762
     12 CAK        25.1924   48.6883   43.7888 C.ar        1 B65      -0.0708
     13 CAT        24.9315   49.7597   42.9043 C.ar        1 B65      -0.0509
     14 CAQ        23.6845   49.7829   42.0824 C.3         1 B65      -0.0214
     15 CAP        23.4407   48.5285   41.1965 C.3         1 B65      -0.0405
     16 CAR        23.8366   48.6346   39.6913 C.3         1 B65      -0.0165
     17 CAW        25.2196   48.0462   39.2598 C.3         1 B65       0.1121
     18 PAX        25.6146   48.5479   37.7019 P.3         1 B65       0.0795
     19 OAB        26.7399   47.8596   37.1132 O.co2       1 B65      -0.5610
     20 OAC        24.4858   48.4206   36.8069 O.co2       1 B65      -0.5610
     21 OAA        25.9721   49.9514   37.6891 O.co2       1 B65      -0.5610
     22 SAY        25.2854   46.2219   39.3591 S.o2        1 B65      -0.1731
     23 OAF        25.2588   45.6871   40.9598 O.co2       1 B65      -0.4830
     24 OAE        26.7106   45.6276   38.6731 O.co2       1 B65      -0.4830
     25 OAD        23.9643   45.5552   38.5342 O.co2       1 B65      -0.4830
     26 H1         27.9921   51.8326   41.1334 H           1 B65       0.0552
     27 H2         30.0638   51.6297   39.8914 H           1 B65       0.0590
     28 H3         32.1867   51.5375   41.0707 H           1 B65       0.0528
     29 H4         32.2316   51.6485   43.4965 H           1 B65       0.0590
     30 H5         30.1639   51.8388   44.7470 H           1 B65       0.0552
     31 H6         25.6455   51.6653   42.2864 H           1 B65       0.0488
     32 H7         27.9593   49.8519   45.2952 H           1 B65       0.0496
     33 H8         26.4833   47.9287   45.2812 H           1 B65       0.0573
     34 H9         24.5594   47.8901   43.8389 H           1 B65       0.0470
     35 H10        23.6342   50.6867   41.4677 H           1 B65       0.0424
     36 H11        22.8612   49.8646   42.7919 H           1 B65       0.0424
     37 H12        22.3622   48.3308   41.2372 H           1 B65       0.0288
     38 H13        23.9117   47.6590   41.6477 H           1 B65       0.0288
     39 H14        23.7780   49.6939   39.4064 H           1 B65       0.0298
     40 H15        23.0616   48.1237   39.1021 H           1 B65       0.0298
     41 H16        25.9853   48.4271   39.9309 H           1 B65       0.0695
@<TRIPOS>BOND
     1     1     2  ar
     2     1     6  ar
     3     2     3  ar
     4     3     4  ar
     5     4     5  ar
     6     5     6  ar
     7     6     7   1
     8     7     8   1
     9     8     9  ar
    10     8    10  ar
    11     9    13  ar
    12    10    11  ar
    13    11    12  ar
    14    12    13  ar
    15    13    14   1
    16    14    15   1
    17    15    16   1
    18    16    17   1
    19    17    18   1
    20    17    22   1
    21    18    19  ar
    22    18    20  ar
    23    18    21  ar
    24    22    23  ar
    25    22    24  ar
    26    22    25  ar
    27     1    26   1
    28     2    27   1
    29     3    28   1
    30     4    29   1
    31     5    30   1
    32     9    31   1
    33    10    32   1
    34    11    33   1
    35    12    34   1
    36    14    35   1
    37    14    36   1
    38    15    37   1
    39    15    38   1
    40    16    39   1
    41    16    40   1
    42    17    41   1
@<TRIPOS>SUBSTRUCTURE
     1  B65      1

