@<TRIPOS>MOLECULE
2zcq_ligand_023
    41    42
SMALL
GAST_HUCK
****
This file was generated by PARSER (from files_GN.cpp)

@<TRIPOS>ATOM
      1 CAL        25.1833   45.4513   44.1681 C.ar        1 B65      -0.0285
      2 CAH        25.9403   44.2667   44.0700 C.ar        1 B65      -0.0697
      3 CAG        27.1576   44.1500   44.7717 C.ar        1 B65      -0.0723
      4 CAI        27.6219   45.2212   45.5593 C.ar        1 B65      -0.0697
      5 CAM        26.8617   46.4080   45.6547 C.ar        1 B65      -0.0285
      6 CAU        25.6624   46.5456   44.9232 C.ar        1 B65       0.1159
      7 OAS        24.8975   47.6791   44.9869 O.3         1 B65      -0.2597
      8 CAV        25.3914   48.7902   44.3354 C.ar        1 B65       0.1094
      9 CAO        26.0711   48.7566   43.0878 C.ar        1 B65      -0.0276
     10 CAN        25.1252   50.0385   44.9287 C.ar        1 B65      -0.0354
     11 CAJ        25.5661   51.2293   44.3260 C.ar        1 B65      -0.0762
     12 CAK        26.2961   51.1831   43.1188 C.ar        1 B65      -0.0708
     13 CAT        26.5652   49.9418   42.4846 C.ar        1 B65      -0.0509
     14 CAQ        27.4337   49.8875   41.2681 C.3         1 B65      -0.0214
     15 CAP        26.9366   50.7173   40.0544 C.3         1 B65      -0.0405
     16 CAR        25.6880   50.1354   39.3187 C.3         1 B65      -0.0165
     17 CAW        25.2088   51.0207   38.1140 C.3         1 B65       0.1121
     18 PAX        24.3431   52.3809   38.5725 P.3         1 B65       0.0795
     19 OAB        25.1128   53.2621   39.4090 O.co2       1 B65      -0.5610
     20 OAC        23.9233   53.1616   37.4346 O.co2       1 B65      -0.5610
     21 OAA        23.1433   52.0618   39.3036 O.co2       1 B65      -0.5610
     22 SAY        24.2270   50.0714   36.9205 S.o2        1 B65      -0.1731
     23 OAF        24.2382   50.8750   35.4284 O.co2       1 B65      -0.4830
     24 OAE        22.6351   49.9592   37.4783 O.co2       1 B65      -0.4830
     25 OAD        24.8594   48.5158   36.6991 O.co2       1 B65      -0.4830
     26 H1         24.3050   45.5294   43.6551 H           1 B65       0.0552
     27 H2         25.6046   43.4884   43.4962 H           1 B65       0.0590
     28 H3         27.7050   43.2873   44.7041 H           1 B65       0.0528
     29 H4         28.5022   45.1323   46.0740 H           1 B65       0.0590
     30 H5         27.2118   47.1830   46.2178 H           1 B65       0.0552
     31 H6         26.2458   47.8607   42.6297 H           1 B65       0.0488
     32 H7         24.6158   50.0808   45.8115 H           1 B65       0.0496
     33 H8         25.3633   52.1314   44.7694 H           1 B65       0.0573
     34 H9         26.6422   52.0643   42.7158 H           1 B65       0.0470
     35 H10        27.5883   48.8476   40.9465 H           1 B65       0.0424
     36 H11        28.4151   50.2748   41.5641 H           1 B65       0.0424
     37 H12        27.7651   50.7653   39.3253 H           1 B65       0.0288
     38 H13        26.7208   51.7393   40.3957 H           1 B65       0.0288
     39 H14        24.8625   49.9741   40.0317 H           1 B65       0.0298
     40 H15        25.9821   49.1465   38.9461 H           1 B65       0.0298
     41 H16        26.1019   51.3587   37.5769 H           1 B65       0.0695
@<TRIPOS>BOND
     1     1     2  ar
     2     1     6  ar
     3     2     3  ar
     4     3     4  ar
     5     4     5  ar
     6     5     6  ar
     7     6     7   1
     8     7     8   1
     9     8     9  ar
    10     8    10  ar
    11     9    13  ar
    12    10    11  ar
    13    11    12  ar
    14    12    13  ar
    15    13    14   1
    16    14    15   1
    17    15    16   1
    18    16    17   1
    19    17    18   1
    20    17    22   1
    21    18    19  ar
    22    18    20  ar
    23    18    21  ar
    24    22    23  ar
    25    22    24  ar
    26    22    25  ar
    27     1    26   1
    28     2    27   1
    29     3    28   1
    30     4    29   1
    31     5    30   1
    32     9    31   1
    33    10    32   1
    34    11    33   1
    35    12    34   1
    36    14    35   1
    37    14    36   1
    38    15    37   1
    39    15    38   1
    40    16    39   1
    41    16    40   1
    42    17    41   1
@<TRIPOS>SUBSTRUCTURE
     1  B65      1

