@<TRIPOS>MOLECULE
2zcq_ligand_020
    41    42
SMALL
GAST_HUCK
****
This file was generated by PARSER (from files_GN.cpp)

@<TRIPOS>ATOM
      1 CAL        24.8140   45.7153   31.4118 C.ar        1 B65      -0.0285
      2 CAH        23.5659   45.0848   31.2750 C.ar        1 B65      -0.0697
      3 CAG        23.3160   43.8638   31.9325 C.ar        1 B65      -0.0723
      4 CAI        24.3176   43.2808   32.7306 C.ar        1 B65      -0.0697
      5 CAM        25.5635   43.9189   32.8791 C.ar        1 B65      -0.0285
      6 CAU        25.8167   45.1440   32.2269 C.ar        1 B65       0.1159
      7 OAS        27.0398   45.7409   32.3788 O.3         1 B65      -0.2597
      8 CAV        27.1625   46.9091   33.1056 C.ar        1 B65       0.1094
      9 CAO        26.1139   47.5874   33.7752 C.ar        1 B65      -0.0276
     10 CAN        28.4555   47.4548   33.1706 C.ar        1 B65      -0.0354
     11 CAJ        28.6988   48.6388   33.8839 C.ar        1 B65      -0.0762
     12 CAK        27.6420   49.3313   34.4940 C.ar        1 B65      -0.0708
     13 CAT        26.3291   48.8105   34.4552 C.ar        1 B65      -0.0509
     14 CAQ        25.1356   49.4741   35.0454 C.3         1 B65      -0.0214
     15 CAP        25.2666   50.8466   35.7633 C.3         1 B65      -0.0405
     16 CAR        26.0895   50.9232   37.0931 C.3         1 B65      -0.0165
     17 CAW        25.3783   50.7093   38.4692 C.3         1 B65       0.1121
     18 PAX        24.8371   49.1600   38.7385 P.3         1 B65       0.0795
     19 OAB        25.9484   48.2379   38.8629 O.co2       1 B65      -0.5610
     20 OAC        24.0865   49.0643   39.9727 O.co2       1 B65      -0.5610
     21 OAA        23.9616   48.6832   37.6893 O.co2       1 B65      -0.5610
     22 SAY        24.1236   51.9731   38.8468 S.o2        1 B65      -0.1731
     23 OAF        23.8847   53.0696   37.5839 O.co2       1 B65      -0.4830
     24 OAE        24.6448   52.8416   40.1998 O.co2       1 B65      -0.4830
     25 OAD        22.6228   51.2714   39.1666 O.co2       1 B65      -0.4830
     26 H1         24.9914   46.6002   30.9287 H           1 B65       0.0552
     27 H2         22.8393   45.5108   30.6951 H           1 B65       0.0590
     28 H3         22.4088   43.4032   31.8301 H           1 B65       0.0528
     29 H4         24.1414   42.3899   33.2024 H           1 B65       0.0590
     30 H5         26.2874   43.4898   33.4601 H           1 B65       0.0552
     31 H6         25.1718   47.1943   33.7587 H           1 B65       0.0488
     32 H7         29.2339   47.0001   32.6921 H           1 B65       0.0496
     33 H8         29.6420   49.0110   33.9491 H           1 B65       0.0573
     34 H9         27.8485   50.2165   34.9558 H           1 B65       0.0470
     35 H10        24.6814   48.7633   35.7421 H           1 B65       0.0424
     36 H11        24.4253   49.6216   34.2266 H           1 B65       0.0424
     37 H12        24.2582   51.2135   35.9446 H           1 B65       0.0288
     38 H13        25.7160   51.5363   35.0468 H           1 B65       0.0288
     39 H14        26.5322   51.9243   37.1364 H           1 B65       0.0298
     40 H15        26.9288   50.2326   37.0290 H           1 B65       0.0298
     41 H16        26.1549   50.8667   39.2247 H           1 B65       0.0695
@<TRIPOS>BOND
     1     1     2  ar
     2     1     6  ar
     3     2     3  ar
     4     3     4  ar
     5     4     5  ar
     6     5     6  ar
     7     6     7   1
     8     7     8   1
     9     8     9  ar
    10     8    10  ar
    11     9    13  ar
    12    10    11  ar
    13    11    12  ar
    14    12    13  ar
    15    13    14   1
    16    14    15   1
    17    15    16   1
    18    16    17   1
    19    17    18   1
    20    17    22   1
    21    18    19  ar
    22    18    20  ar
    23    18    21  ar
    24    22    23  ar
    25    22    24  ar
    26    22    25  ar
    27     1    26   1
    28     2    27   1
    29     3    28   1
    30     4    29   1
    31     5    30   1
    32     9    31   1
    33    10    32   1
    34    11    33   1
    35    12    34   1
    36    14    35   1
    37    14    36   1
    38    15    37   1
    39    15    38   1
    40    16    39   1
    41    16    40   1
    42    17    41   1
@<TRIPOS>SUBSTRUCTURE
     1  B65      1

