@<TRIPOS>MOLECULE
2zcq_ligand_043
    41    42
SMALL
GAST_HUCK
****
This file was generated by PARSER (from files_GN.cpp)

@<TRIPOS>ATOM
      1 CAL        13.7293   54.8109   41.9047 C.ar        1 B65      -0.0285
      2 CAH        13.0425   55.3626   43.0011 C.ar        1 B65      -0.0697
      3 CAG        11.7049   55.0008   43.2445 C.ar        1 B65      -0.0723
      4 CAI        11.0569   54.0864   42.3962 C.ar        1 B65      -0.0697
      5 CAM        11.7486   53.5228   41.3075 C.ar        1 B65      -0.0285
      6 CAU        13.0930   53.8709   41.0611 C.ar        1 B65       0.1159
      7 OAS        13.7210   53.2981   39.9839 O.3         1 B65      -0.2597
      8 CAV        14.9280   52.7144   40.2726 C.ar        1 B65       0.1094
      9 CAO        16.0795   53.2146   39.6321 C.ar        1 B65      -0.0276
     10 CAN        15.0491   51.6319   41.1702 C.ar        1 B65      -0.0354
     11 CAJ        16.3122   51.0929   41.4642 C.ar        1 B65      -0.0762
     12 CAK        17.4578   51.6175   40.8401 C.ar        1 B65      -0.0708
     13 CAT        17.3560   52.6739   39.9045 C.ar        1 B65      -0.0509
     14 CAQ        18.5801   53.2288   39.2590 C.3         1 B65      -0.0214
     15 CAP        19.3467   54.2073   40.1980 C.3         1 B65      -0.0405
     16 CAR        20.7923   54.5596   39.7203 C.3         1 B65      -0.0165
     17 CAW        21.8023   54.8948   40.8812 C.3         1 B65       0.1121
     18 PAX        22.3040   56.4926   40.9390 P.3         1 B65       0.0795
     19 OAB        23.4030   56.7916   40.0542 O.co2       1 B65      -0.5610
     20 OAC        21.2242   57.4017   40.6514 O.co2       1 B65      -0.5610
     21 OAA        22.7556   56.8241   42.2695 O.co2       1 B65      -0.5610
     22 SAY        23.2430   53.7845   40.8518 S.o2        1 B65      -0.1731
     23 OAF        23.9244   53.7929   39.3096 O.co2       1 B65      -0.4830
     24 OAE        22.7607   52.2146   41.2387 O.co2       1 B65      -0.4830
     25 OAD        24.4060   54.2699   41.9804 O.co2       1 B65      -0.4830
     26 H1         14.6989   55.0813   41.7318 H           1 B65       0.0552
     27 H2         13.5121   56.0246   43.6234 H           1 B65       0.0590
     28 H3         11.1986   55.3988   44.0355 H           1 B65       0.0528
     29 H4         10.0856   53.8299   42.5768 H           1 B65       0.0590
     30 H5         11.2715   52.8529   40.6992 H           1 B65       0.0552
     31 H6         15.9864   54.0003   38.9835 H           1 B65       0.0488
     32 H7         14.2183   51.2551   41.6346 H           1 B65       0.0496
     33 H8         16.4001   50.3333   42.1446 H           1 B65       0.0573
     34 H9         18.3714   51.2335   41.0891 H           1 B65       0.0470
     35 H10        18.3344   53.7337   38.3254 H           1 B65       0.0424
     36 H11        19.2330   52.3824   38.9959 H           1 B65       0.0424
     37 H12        19.3944   53.7518   41.1895 H           1 B65       0.0288
     38 H13        18.7653   55.1315   40.2966 H           1 B65       0.0288
     39 H14        20.7246   55.3794   38.9991 H           1 B65       0.0298
     40 H15        21.1719   53.7126   39.1474 H           1 B65       0.0298
     41 H16        21.3289   54.6982   41.8392 H           1 B65       0.0695
@<TRIPOS>BOND
     1     1     2  ar
     2     1     6  ar
     3     2     3  ar
     4     3     4  ar
     5     4     5  ar
     6     5     6  ar
     7     6     7   1
     8     7     8   1
     9     8     9  ar
    10     8    10  ar
    11     9    13  ar
    12    10    11  ar
    13    11    12  ar
    14    12    13  ar
    15    13    14   1
    16    14    15   1
    17    15    16   1
    18    16    17   1
    19    17    18   1
    20    17    22   1
    21    18    19  ar
    22    18    20  ar
    23    18    21  ar
    24    22    23  ar
    25    22    24  ar
    26    22    25  ar
    27     1    26   1
    28     2    27   1
    29     3    28   1
    30     4    29   1
    31     5    30   1
    32     9    31   1
    33    10    32   1
    34    11    33   1
    35    12    34   1
    36    14    35   1
    37    14    36   1
    38    15    37   1
    39    15    38   1
    40    16    39   1
    41    16    40   1
    42    17    41   1
@<TRIPOS>SUBSTRUCTURE
     1  B65      1

