@<TRIPOS>MOLECULE
2zcq_ligand_010
    41    42
SMALL
GAST_HUCK
****
This file was generated by PARSER (from files_GN.cpp)

@<TRIPOS>ATOM
      1 CAL        15.2534   48.7442   37.3696 C.ar        1 B65      -0.0285
      2 CAH        15.2874   47.3724   37.0602 C.ar        1 B65      -0.0697
      3 CAG        16.0943   46.9100   36.0046 C.ar        1 B65      -0.0723
      4 CAI        16.8363   47.8255   35.2335 C.ar        1 B65      -0.0697
      5 CAM        16.7880   49.1992   35.5329 C.ar        1 B65      -0.0285
      6 CAU        16.0127   49.6653   36.6199 C.ar        1 B65       0.1159
      7 OAS        15.9063   50.9949   36.9209 O.3         1 B65      -0.2597
      8 CAV        17.0380   51.5133   37.4868 C.ar        1 B65       0.1094
      9 CAO        18.0498   52.0686   36.6710 C.ar        1 B65      -0.0276
     10 CAN        17.1613   51.5773   38.8888 C.ar        1 B65      -0.0354
     11 CAJ        18.2746   52.2085   39.4709 C.ar        1 B65      -0.0762
     12 CAK        19.2647   52.7838   38.6520 C.ar        1 B65      -0.0708
     13 CAT        19.1902   52.6799   37.2414 C.ar        1 B65      -0.0509
     14 CAQ        20.2949   53.1824   36.3752 C.3         1 B65      -0.0214
     15 CAP        21.3192   52.0802   35.9618 C.3         1 B65      -0.0405
     16 CAR        22.1163   51.4334   37.1442 C.3         1 B65      -0.0165
     17 CAW        23.6546   51.7520   37.2409 C.3         1 B65       0.1121
     18 PAX        24.6276   50.6193   36.4912 P.3         1 B65       0.0795
     19 OAB        24.0830   49.2784   36.5343 O.co2       1 B65      -0.5610
     20 OAC        24.7646   50.9528   35.0887 O.co2       1 B65      -0.5610
     21 OAA        25.9713   50.5311   37.0242 O.co2       1 B65      -0.5610
     22 SAY        24.1371   52.0562   38.9680 S.o2        1 B65      -0.1731
     23 OAF        25.7609   52.5192   39.0773 O.co2       1 B65      -0.4830
     24 OAE        23.8707   50.6662   39.8918 O.co2       1 B65      -0.4830
     25 OAD        23.1894   53.3174   39.5811 O.co2       1 B65      -0.4830
     26 H1         14.6605   49.0724   38.1333 H           1 B65       0.0552
     27 H2         14.7344   46.7091   37.6060 H           1 B65       0.0590
     28 H3         16.1363   45.9125   35.7988 H           1 B65       0.0528
     29 H4         17.4195   47.4933   34.4634 H           1 B65       0.0590
     30 H5         17.3135   49.8561   34.9545 H           1 B65       0.0552
     31 H6         17.9485   52.0250   35.6545 H           1 B65       0.0488
     32 H7         16.4367   51.1731   39.4881 H           1 B65       0.0496
     33 H8         18.3642   52.2520   40.4885 H           1 B65       0.0573
     34 H9         20.0474   53.2649   39.0921 H           1 B65       0.0470
     35 H10        20.8281   53.9909   36.8837 H           1 B65       0.0424
     36 H11        19.8726   53.6147   35.4628 H           1 B65       0.0424
     37 H12        22.0192   52.5182   35.2416 H           1 B65       0.0288
     38 H13        20.7764   51.2977   35.4223 H           1 B65       0.0288
     39 H14        21.9514   50.3524   37.1186 H           1 B65       0.0298
     40 H15        21.6403   51.7611   38.0695 H           1 B65       0.0298
     41 H16        23.8422   52.7106   36.7457 H           1 B65       0.0695
@<TRIPOS>BOND
     1     1     2  ar
     2     1     6  ar
     3     2     3  ar
     4     3     4  ar
     5     4     5  ar
     6     5     6  ar
     7     6     7   1
     8     7     8   1
     9     8     9  ar
    10     8    10  ar
    11     9    13  ar
    12    10    11  ar
    13    11    12  ar
    14    12    13  ar
    15    13    14   1
    16    14    15   1
    17    15    16   1
    18    16    17   1
    19    17    18   1
    20    17    22   1
    21    18    19  ar
    22    18    20  ar
    23    18    21  ar
    24    22    23  ar
    25    22    24  ar
    26    22    25  ar
    27     1    26   1
    28     2    27   1
    29     3    28   1
    30     4    29   1
    31     5    30   1
    32     9    31   1
    33    10    32   1
    34    11    33   1
    35    12    34   1
    36    14    35   1
    37    14    36   1
    38    15    37   1
    39    15    38   1
    40    16    39   1
    41    16    40   1
    42    17    41   1
@<TRIPOS>SUBSTRUCTURE
     1  B65      1

