@<TRIPOS>MOLECULE
2zcq_ligand_045
    41    42
SMALL
GAST_HUCK
****
This file was generated by PARSER (from files_GN.cpp)

@<TRIPOS>ATOM
      1 CAL        22.3867   49.5147   31.7002 C.ar        1 B65      -0.0285
      2 CAH        22.1489   50.2535   30.5274 C.ar        1 B65      -0.0697
      3 CAG        22.4243   51.6289   30.4876 C.ar        1 B65      -0.0723
      4 CAI        22.8910   52.2860   31.6405 C.ar        1 B65      -0.0697
      5 CAM        23.0966   51.5525   32.8250 C.ar        1 B65      -0.0285
      6 CAU        22.8899   50.1563   32.8476 C.ar        1 B65       0.1159
      7 OAS        23.1374   49.4418   33.9851 O.3         1 B65      -0.2597
      8 CAV        24.4100   48.9332   33.9869 C.ar        1 B65       0.1094
      9 CAO        25.4559   49.6547   34.6049 C.ar        1 B65      -0.0276
     10 CAN        24.6758   47.6534   33.4594 C.ar        1 B65      -0.0354
     11 CAJ        25.9732   47.1160   33.5273 C.ar        1 B65      -0.0762
     12 CAK        27.0025   47.8342   34.1638 C.ar        1 B65      -0.0708
     13 CAT        26.7485   49.1093   34.7232 C.ar        1 B65      -0.0509
     14 CAQ        27.8091   49.8568   35.4508 C.3         1 B65      -0.0214
     15 CAP        27.5927   49.9227   36.9977 C.3         1 B65      -0.0405
     16 CAR        26.5679   50.9829   37.5298 C.3         1 B65      -0.0165
     17 CAW        25.2596   50.4514   38.2429 C.3         1 B65       0.1121
     18 PAX        23.8035   50.9431   37.5534 P.3         1 B65       0.0795
     19 OAB        23.3656   49.9239   36.6358 O.co2       1 B65      -0.5610
     20 OAC        22.6752   51.0547   38.4390 O.co2       1 B65      -0.5610
     21 OAA        23.8093   52.2061   36.8597 O.co2       1 B65      -0.5610
     22 SAY        25.2789   50.8292   40.0215 S.o2        1 B65      -0.1731
     23 OAF        23.9011   50.2206   40.7955 O.co2       1 B65      -0.4830
     24 OAE        25.3520   52.4990   40.2368 O.co2       1 B65      -0.4830
     25 OAD        26.6355   50.1073   40.7335 O.co2       1 B65      -0.4830
     26 H1         22.1987   48.5092   31.7189 H           1 B65       0.0552
     27 H2         21.7785   49.7892   29.6987 H           1 B65       0.0590
     28 H3         22.2602   52.1533   29.6265 H           1 B65       0.0528
     29 H4         23.0704   53.2921   31.6221 H           1 B65       0.0590
     30 H5         23.4066   52.0304   33.6690 H           1 B65       0.0552
     31 H6         25.2623   50.5823   34.9786 H           1 B65       0.0488
     32 H7         23.9262   47.1152   33.0160 H           1 B65       0.0496
     33 H8         26.1642   46.1922   33.1308 H           1 B65       0.0573
     34 H9         27.9347   47.4184   34.2197 H           1 B65       0.0470
     35 H10        27.9014   50.8629   35.0319 H           1 B65       0.0424
     36 H11        28.7733   49.3712   35.2627 H           1 B65       0.0424
     37 H12        28.5660   50.1616   37.4293 H           1 B65       0.0288
     38 H13        27.3492   48.9207   37.3730 H           1 B65       0.0288
     39 H14        26.3227   51.6749   36.7233 H           1 B65       0.0298
     40 H15        27.1227   51.5999   38.2416 H           1 B65       0.0298
     41 H16        25.2635   49.3607   38.2116 H           1 B65       0.0695
@<TRIPOS>BOND
     1     1     2  ar
     2     1     6  ar
     3     2     3  ar
     4     3     4  ar
     5     4     5  ar
     6     5     6  ar
     7     6     7   1
     8     7     8   1
     9     8     9  ar
    10     8    10  ar
    11     9    13  ar
    12    10    11  ar
    13    11    12  ar
    14    12    13  ar
    15    13    14   1
    16    14    15   1
    17    15    16   1
    18    16    17   1
    19    17    18   1
    20    17    22   1
    21    18    19  ar
    22    18    20  ar
    23    18    21  ar
    24    22    23  ar
    25    22    24  ar
    26    22    25  ar
    27     1    26   1
    28     2    27   1
    29     3    28   1
    30     4    29   1
    31     5    30   1
    32     9    31   1
    33    10    32   1
    34    11    33   1
    35    12    34   1
    36    14    35   1
    37    14    36   1
    38    15    37   1
    39    15    38   1
    40    16    39   1
    41    16    40   1
    42    17    41   1
@<TRIPOS>SUBSTRUCTURE
     1  B65      1

