@<TRIPOS>MOLECULE
2zcq_ligand_005
    41    42
SMALL
GAST_HUCK
****
This file was generated by PARSER (from files_GN.cpp)

@<TRIPOS>ATOM
      1 CAL        25.3212   46.3315   38.5506 C.ar        1 B65      -0.0285
      2 CAH        24.3170   47.0938   39.1796 C.ar        1 B65      -0.0697
      3 CAG        24.3889   47.3419   40.5622 C.ar        1 B65      -0.0723
      4 CAI        25.4394   46.7968   41.3235 C.ar        1 B65      -0.0697
      5 CAM        26.4476   46.0449   40.6918 C.ar        1 B65      -0.0285
      6 CAU        26.4043   45.8223   39.2956 C.ar        1 B65       0.1159
      7 OAS        27.4271   45.1905   38.6286 O.3         1 B65      -0.2597
      8 CAV        28.4836   46.0360   38.3689 C.ar        1 B65       0.1094
      9 CAO        28.3119   47.3521   37.8911 C.ar        1 B65      -0.0276
     10 CAN        29.7882   45.5728   38.6425 C.ar        1 B65      -0.0354
     11 CAJ        30.8936   46.4357   38.4804 C.ar        1 B65      -0.0762
     12 CAK        30.6896   47.7806   38.1186 C.ar        1 B65      -0.0708
     13 CAT        29.3859   48.2704   37.8471 C.ar        1 B65      -0.0509
     14 CAQ        29.1356   49.7182   37.5880 C.3         1 B65      -0.0214
     15 CAP        28.3744   50.4385   38.7453 C.3         1 B65      -0.0405
     16 CAR        26.8121   50.3381   38.8354 C.3         1 B65      -0.0165
     17 CAW        25.9911   51.0784   37.7098 C.3         1 B65       0.1121
     18 PAX        24.6389   51.8800   38.2936 P.3         1 B65       0.0795
     19 OAB        24.9628   52.6765   39.4559 O.co2       1 B65      -0.5610
     20 OAC        24.0686   52.7969   37.3376 O.co2       1 B65      -0.5610
     21 OAA        23.5859   50.9749   38.6896 O.co2       1 B65      -0.5610
     22 SAY        25.4894   49.9905   36.3299 S.o2        1 B65      -0.1731
     23 OAF        24.9318   50.9222   35.0346 O.co2       1 B65      -0.4830
     24 OAE        24.2318   48.9536   36.7955 O.co2       1 B65      -0.4830
     25 OAD        26.7757   49.0561   35.7611 O.co2       1 B65      -0.4830
     26 H1         25.2760   46.1772   37.5409 H           1 B65       0.0552
     27 H2         23.5528   47.4899   38.6274 H           1 B65       0.0590
     28 H3         23.6614   47.8984   41.0171 H           1 B65       0.0528
     29 H4         25.4848   46.9723   42.3301 H           1 B65       0.0590
     30 H5         27.2282   45.6880   41.2397 H           1 B65       0.0552
     31 H6         27.3739   47.6550   37.6332 H           1 B65       0.0488
     32 H7         29.9427   44.6128   38.9573 H           1 B65       0.0496
     33 H8         31.8403   46.0999   38.6801 H           1 B65       0.0573
     34 H9         31.4956   48.4109   38.0689 H           1 B65       0.0470
     35 H10        28.6055   49.8462   36.6444 H           1 B65       0.0424
     36 H11        30.0978   50.2327   37.4747 H           1 B65       0.0424
     37 H12        28.6279   51.5017   38.7052 H           1 B65       0.0288
     38 H13        28.7846   50.0670   39.6902 H           1 B65       0.0288
     39 H14        26.5682   50.7656   39.8141 H           1 B65       0.0298
     40 H15        26.4962   49.3028   38.9012 H           1 B65       0.0298
     41 H16        26.6245   51.8550   37.2678 H           1 B65       0.0695
@<TRIPOS>BOND
     1     1     2  ar
     2     1     6  ar
     3     2     3  ar
     4     3     4  ar
     5     4     5  ar
     6     5     6  ar
     7     6     7   1
     8     7     8   1
     9     8     9  ar
    10     8    10  ar
    11     9    13  ar
    12    10    11  ar
    13    11    12  ar
    14    12    13  ar
    15    13    14   1
    16    14    15   1
    17    15    16   1
    18    16    17   1
    19    17    18   1
    20    17    22   1
    21    18    19  ar
    22    18    20  ar
    23    18    21  ar
    24    22    23  ar
    25    22    24  ar
    26    22    25  ar
    27     1    26   1
    28     2    27   1
    29     3    28   1
    30     4    29   1
    31     5    30   1
    32     9    31   1
    33    10    32   1
    34    11    33   1
    35    12    34   1
    36    14    35   1
    37    14    36   1
    38    15    37   1
    39    15    38   1
    40    16    39   1
    41    16    40   1
    42    17    41   1
@<TRIPOS>SUBSTRUCTURE
     1  B65      1

