@<TRIPOS>MOLECULE
2zcq_ligand_042
    41    42
SMALL
GAST_HUCK
****
This file was generated by PARSER (from files_GN.cpp)

@<TRIPOS>ATOM
      1 CAL        17.5772   49.5378   35.7355 C.ar        1 B65      -0.0285
      2 CAH        16.5095   48.6604   36.0162 C.ar        1 B65      -0.0697
      3 CAG        15.9293   48.6452   37.2981 C.ar        1 B65      -0.0723
      4 CAI        16.4264   49.4966   38.3048 C.ar        1 B65      -0.0697
      5 CAM        17.5041   50.3608   38.0255 C.ar        1 B65      -0.0285
      6 CAU        18.0644   50.4103   36.7306 C.ar        1 B65       0.1159
      7 OAS        19.1424   51.2011   36.4425 O.3         1 B65      -0.2597
      8 CAV        18.8700   52.5420   36.5204 C.ar        1 B65       0.1094
      9 CAO        19.3729   53.2803   37.6075 C.ar        1 B65      -0.0276
     10 CAN        18.2468   53.2190   35.4544 C.ar        1 B65      -0.0354
     11 CAJ        18.0795   54.6129   35.5098 C.ar        1 B65      -0.0762
     12 CAK        18.5959   55.3462   36.5933 C.ar        1 B65      -0.0708
     13 CAT        19.2543   54.6898   37.6600 C.ar        1 B65      -0.0509
     14 CAQ        19.8201   55.4901   38.7934 C.3         1 B65      -0.0214
     15 CAP        21.1526   54.9565   39.4062 C.3         1 B65      -0.0405
     16 CAR        21.8989   55.9589   40.3427 C.3         1 B65      -0.0165
     17 CAW        22.6550   55.2907   41.5501 C.3         1 B65       0.1121
     18 PAX        23.7165   56.3513   42.2875 P.3         1 B65       0.0795
     19 OAB        24.6226   56.8733   41.2987 O.co2       1 B65      -0.5610
     20 OAC        23.0724   57.4621   42.9453 O.co2       1 B65      -0.5610
     21 OAA        24.5122   55.7063   43.3042 O.co2       1 B65      -0.5610
     22 SAY        23.4918   53.7253   41.0951 S.o2        1 B65      -0.1731
     23 OAF        24.0566   53.8167   39.5066 O.co2       1 B65      -0.4830
     24 OAE        22.3915   52.4417   41.2235 O.co2       1 B65      -0.4830
     25 OAD        24.7945   53.3667   42.1162 O.co2       1 B65      -0.4830
     26 H1         17.9910   49.5411   34.7994 H           1 B65       0.0552
     27 H2         16.1648   48.0279   35.2888 H           1 B65       0.0590
     28 H3         15.1490   48.0145   37.4991 H           1 B65       0.0528
     29 H4         16.0125   49.4776   39.2405 H           1 B65       0.0590
     30 H5         17.8675   50.9642   38.7671 H           1 B65       0.0552
     31 H6         19.8359   52.7638   38.3649 H           1 B65       0.0488
     32 H7         17.9063   52.7075   34.6432 H           1 B65       0.0496
     33 H8         17.6248   55.1104   34.7427 H           1 B65       0.0573
     34 H9         18.4887   56.3666   36.6089 H           1 B65       0.0470
     35 H10        19.0773   55.5295   39.5964 H           1 B65       0.0424
     36 H11        19.9977   56.5216   38.4664 H           1 B65       0.0424
     37 H12        21.8371   54.6911   38.5877 H           1 B65       0.0288
     38 H13        20.9193   54.0426   39.9692 H           1 B65       0.0288
     39 H14        21.1692   56.6734   40.7327 H           1 B65       0.0298
     40 H15        22.6096   56.5198   39.7166 H           1 B65       0.0298
     41 H16        21.9061   55.0254   42.2916 H           1 B65       0.0695
@<TRIPOS>BOND
     1     1     2  ar
     2     1     6  ar
     3     2     3  ar
     4     3     4  ar
     5     4     5  ar
     6     5     6  ar
     7     6     7   1
     8     7     8   1
     9     8     9  ar
    10     8    10  ar
    11     9    13  ar
    12    10    11  ar
    13    11    12  ar
    14    12    13  ar
    15    13    14   1
    16    14    15   1
    17    15    16   1
    18    16    17   1
    19    17    18   1
    20    17    22   1
    21    18    19  ar
    22    18    20  ar
    23    18    21  ar
    24    22    23  ar
    25    22    24  ar
    26    22    25  ar
    27     1    26   1
    28     2    27   1
    29     3    28   1
    30     4    29   1
    31     5    30   1
    32     9    31   1
    33    10    32   1
    34    11    33   1
    35    12    34   1
    36    14    35   1
    37    14    36   1
    38    15    37   1
    39    15    38   1
    40    16    39   1
    41    16    40   1
    42    17    41   1
@<TRIPOS>SUBSTRUCTURE
     1  B65      1

