@<TRIPOS>MOLECULE
2zcq_ligand_002
    41    42
SMALL
GAST_HUCK
****
This file was generated by PARSER (from files_GN.cpp)

@<TRIPOS>ATOM
      1 CAL        27.8686   46.0164   36.2411 C.ar        1 B65      -0.0285
      2 CAH        27.1914   46.1149   35.0106 C.ar        1 B65      -0.0697
      3 CAG        27.5345   47.1285   34.0952 C.ar        1 B65      -0.0723
      4 CAI        28.5461   48.0513   34.4177 C.ar        1 B65      -0.0697
      5 CAM        29.2166   47.9594   35.6521 C.ar        1 B65      -0.0285
      6 CAU        28.8708   46.9530   36.5776 C.ar        1 B65       0.1159
      7 OAS        29.5731   46.8683   37.7513 O.3         1 B65      -0.2597
      8 CAV        28.7938   47.0351   38.8674 C.ar        1 B65       0.1094
      9 CAO        28.5645   48.3088   39.4407 C.ar        1 B65      -0.0276
     10 CAN        28.2369   45.8924   39.4811 C.ar        1 B65      -0.0354
     11 CAJ        27.4472   46.0190   40.6365 C.ar        1 B65      -0.0762
     12 CAK        27.2135   47.2924   41.1918 C.ar        1 B65      -0.0708
     13 CAT        27.7613   48.4574   40.5974 C.ar        1 B65      -0.0509
     14 CAQ        27.4347   49.8089   41.1375 C.3         1 B65      -0.0214
     15 CAP        25.9822   50.2814   40.8210 C.3         1 B65      -0.0405
     16 CAR        25.4155   49.8427   39.4332 C.3         1 B65      -0.0165
     17 CAW        25.4550   50.9090   38.2813 C.3         1 B65       0.1121
     18 PAX        24.3467   52.1554   38.4823 P.3         1 B65       0.0795
     19 OAB        24.8366   53.1230   39.4306 O.co2       1 B65      -0.5610
     20 OAC        23.9868   52.9068   37.3083 O.co2       1 B65      -0.5610
     21 OAA        23.0856   51.6886   39.0024 O.co2       1 B65      -0.5610
     22 SAY        25.3270   50.0689   36.6673 S.o2        1 B65      -0.1731
     23 OAF        26.8658   49.5039   36.2632 O.co2       1 B65      -0.4830
     24 OAE        24.7799   51.0396   35.3960 O.co2       1 B65      -0.4830
     25 OAD        24.2633   48.7631   36.7759 O.co2       1 B65      -0.4830
     26 H1         27.6365   45.2597   36.8873 H           1 B65       0.0552
     27 H2         26.4652   45.4366   34.7712 H           1 B65       0.0590
     28 H3         27.0614   47.1816   33.1896 H           1 B65       0.0528
     29 H4         28.7980   48.7885   33.7569 H           1 B65       0.0590
     30 H5         29.9636   48.6241   35.8716 H           1 B65       0.0552
     31 H6         28.9738   49.1330   38.9901 H           1 B65       0.0488
     32 H7         28.4015   44.9652   39.0818 H           1 B65       0.0496
     33 H8         27.0338   45.1856   41.0678 H           1 B65       0.0573
     34 H9         26.6307   47.3641   42.0301 H           1 B65       0.0470
     35 H10        28.1339   50.5584   40.7580 H           1 B65       0.0424
     36 H11        27.5567   49.7779   42.2193 H           1 B65       0.0424
     37 H12        25.9488   51.3712   40.9083 H           1 B65       0.0288
     38 H13        25.3163   49.8952   41.6007 H           1 B65       0.0288
     39 H14        24.3838   49.5049   39.5740 H           1 B65       0.0298
     40 H15        25.9581   48.9477   39.1236 H           1 B65       0.0298
     41 H16        26.4451   51.3699   38.2871 H           1 B65       0.0695
@<TRIPOS>BOND
     1     1     2  ar
     2     1     6  ar
     3     2     3  ar
     4     3     4  ar
     5     4     5  ar
     6     5     6  ar
     7     6     7   1
     8     7     8   1
     9     8     9  ar
    10     8    10  ar
    11     9    13  ar
    12    10    11  ar
    13    11    12  ar
    14    12    13  ar
    15    13    14   1
    16    14    15   1
    17    15    16   1
    18    16    17   1
    19    17    18   1
    20    17    22   1
    21    18    19  ar
    22    18    20  ar
    23    18    21  ar
    24    22    23  ar
    25    22    24  ar
    26    22    25  ar
    27     1    26   1
    28     2    27   1
    29     3    28   1
    30     4    29   1
    31     5    30   1
    32     9    31   1
    33    10    32   1
    34    11    33   1
    35    12    34   1
    36    14    35   1
    37    14    36   1
    38    15    37   1
    39    15    38   1
    40    16    39   1
    41    16    40   1
    42    17    41   1
@<TRIPOS>SUBSTRUCTURE
     1  B65      1

