@<TRIPOS>MOLECULE
2zcq_ligand_011
    41    42
SMALL
GAST_HUCK
****
This file was generated by PARSER (from files_GN.cpp)

@<TRIPOS>ATOM
      1 CAL        27.5629   46.4657   35.1737 C.ar        1 B65      -0.0285
      2 CAH        26.2171   46.2729   34.8089 C.ar        1 B65      -0.0697
      3 CAG        25.4820   47.3269   34.2378 C.ar        1 B65      -0.0723
      4 CAI        26.0990   48.5686   34.0054 C.ar        1 B65      -0.0697
      5 CAM        27.4511   48.7598   34.3550 C.ar        1 B65      -0.0285
      6 CAU        28.1838   47.7183   34.9651 C.ar        1 B65       0.1159
      7 OAS        29.4965   47.9317   35.3023 O.3         1 B65      -0.2597
      8 CAV        29.6556   48.3219   36.6095 C.ar        1 B65       0.1094
      9 CAO        28.9408   49.4145   37.1504 C.ar        1 B65      -0.0276
     10 CAN        30.5951   47.6482   37.4177 C.ar        1 B65      -0.0354
     11 CAJ        30.7933   48.0370   38.7523 C.ar        1 B65      -0.0762
     12 CAK        30.0450   49.0969   39.2960 C.ar        1 B65      -0.0708
     13 CAT        29.0913   49.7867   38.5098 C.ar        1 B65      -0.0509
     14 CAQ        28.2508   50.8543   39.1173 C.3         1 B65      -0.0214
     15 CAP        26.9812   50.3082   39.8383 C.3         1 B65      -0.0405
     16 CAR        25.8202   49.8280   38.9115 C.3         1 B65      -0.0165
     17 CAW        25.2453   50.8426   37.8617 C.3         1 B65       0.1121
     18 PAX        24.5599   52.2151   38.5277 P.3         1 B65       0.0795
     19 OAB        25.4742   52.9493   39.3682 O.co2       1 B65      -0.5610
     20 OAC        24.0985   53.1376   37.5210 O.co2       1 B65      -0.5610
     21 OAA        23.4015   51.9115   39.3353 O.co2       1 B65      -0.5610
     22 SAY        24.0292   50.0482   36.7643 S.o2        1 B65      -0.1731
     23 OAF        24.0861   50.7950   35.2476 O.co2       1 B65      -0.4830
     24 OAE        22.4695   50.2157   37.3955 O.co2       1 B65      -0.4830
     25 OAD        24.3580   48.3990   36.5816 O.co2       1 B65      -0.4830
     26 H1         28.0926   45.6951   35.5886 H           1 B65       0.0552
     27 H2         25.7697   45.3657   34.9617 H           1 B65       0.0590
     28 H3         24.5017   47.1860   33.9781 H           1 B65       0.0528
     29 H4         25.5672   49.3302   33.5841 H           1 B65       0.0590
     30 H5         27.9006   49.6572   34.1674 H           1 B65       0.0552
     31 H6         28.2802   49.9150   36.5523 H           1 B65       0.0488
     32 H7         31.1313   46.8683   37.0335 H           1 B65       0.0496
     33 H8         31.4775   47.5462   39.3338 H           1 B65       0.0573
     34 H9         30.1968   49.3608   40.2731 H           1 B65       0.0470
     35 H10        27.9377   51.5776   38.3591 H           1 B65       0.0424
     36 H11        28.8625   51.4075   39.8401 H           1 B65       0.0424
     37 H12        26.6151   51.0795   40.5183 H           1 B65       0.0288
     38 H13        27.2841   49.4645   40.4687 H           1 B65       0.0288
     39 H14        24.9965   49.4864   39.5461 H           1 B65       0.0298
     40 H15        26.1963   48.9472   38.3827 H           1 B65       0.0298
     41 H16        26.0652   51.1659   37.2194 H           1 B65       0.0695
@<TRIPOS>BOND
     1     1     2  ar
     2     1     6  ar
     3     2     3  ar
     4     3     4  ar
     5     4     5  ar
     6     5     6  ar
     7     6     7   1
     8     7     8   1
     9     8     9  ar
    10     8    10  ar
    11     9    13  ar
    12    10    11  ar
    13    11    12  ar
    14    12    13  ar
    15    13    14   1
    16    14    15   1
    17    15    16   1
    18    16    17   1
    19    17    18   1
    20    17    22   1
    21    18    19  ar
    22    18    20  ar
    23    18    21  ar
    24    22    23  ar
    25    22    24  ar
    26    22    25  ar
    27     1    26   1
    28     2    27   1
    29     3    28   1
    30     4    29   1
    31     5    30   1
    32     9    31   1
    33    10    32   1
    34    11    33   1
    35    12    34   1
    36    14    35   1
    37    14    36   1
    38    15    37   1
    39    15    38   1
    40    16    39   1
    41    16    40   1
    42    17    41   1
@<TRIPOS>SUBSTRUCTURE
     1  B65      1

