@<TRIPOS>MOLECULE
2zcq_ligand_055
    41    42
SMALL
GAST_HUCK
****
This file was generated by PARSER (from files_GN.cpp)

@<TRIPOS>ATOM
      1 CAL        26.5953   49.1359   35.3166 C.ar        1 B65      -0.0285
      2 CAH        27.7652   48.9687   34.5500 C.ar        1 B65      -0.0697
      3 CAG        28.0532   47.7182   33.9715 C.ar        1 B65      -0.0723
      4 CAI        27.1614   46.6421   34.1462 C.ar        1 B65      -0.0697
      5 CAM        25.9964   46.8092   34.9226 C.ar        1 B65      -0.0285
      6 CAU        25.7190   48.0496   35.5395 C.ar        1 B65       0.1159
      7 OAS        24.5728   48.2089   36.2745 O.3         1 B65      -0.2597
      8 CAV        24.8236   48.1101   37.6160 C.ar        1 B65       0.1094
      9 CAO        25.1943   49.2554   38.3534 C.ar        1 B65      -0.0276
     10 CAN        24.5999   46.8998   38.2985 C.ar        1 B65      -0.0354
     11 CAJ        24.8081   46.8134   39.6844 C.ar        1 B65      -0.0762
     12 CAK        25.2274   47.9496   40.4049 C.ar        1 B65      -0.0708
     13 CAT        25.4148   49.1874   39.7479 C.ar        1 B65      -0.0509
     14 CAQ        25.7985   50.4163   40.4996 C.3         1 B65      -0.0214
     15 CAP        24.6052   51.0368   41.3045 C.3         1 B65      -0.0405
     16 CAR        24.5441   50.6491   42.8113 C.3         1 B65      -0.0165
     17 CAW        25.8898   50.7719   43.6072 C.3         1 B65       0.1121
     18 PAX        25.7869   50.1181   45.1461 P.3         1 B65       0.0795
     19 OAB        24.4375   49.8438   45.5919 O.co2       1 B65      -0.5610
     20 OAC        26.5028   48.8619   45.1745 O.co2       1 B65      -0.5610
     21 OAA        26.4340   50.9368   46.1493 O.co2       1 B65      -0.5610
     22 SAY        26.5858   52.4721   43.5754 S.o2        1 B65      -0.1731
     23 OAF        25.3873   53.6440   43.3111 O.co2       1 B65      -0.4830
     24 OAE        27.7040   52.5196   42.3007 O.co2       1 B65      -0.4830
     25 OAD        27.4010   52.9020   45.0003 O.co2       1 B65      -0.4830
     26 H1         26.3871   50.0526   35.7222 H           1 B65       0.0552
     27 H2         28.3996   49.7578   34.4049 H           1 B65       0.0590
     28 H3         28.9016   47.5960   33.4144 H           1 B65       0.0528
     29 H4         27.3549   45.7394   33.7048 H           1 B65       0.0590
     30 H5         25.3554   46.0215   35.0418 H           1 B65       0.0552
     31 H6         25.3132   50.1514   37.8636 H           1 B65       0.0488
     32 H7         24.2914   46.0767   37.7807 H           1 B65       0.0496
     33 H8         24.6537   45.9292   40.1705 H           1 B65       0.0573
     34 H9         25.3863   47.8676   41.4123 H           1 B65       0.0470
     35 H10        26.1616   51.1821   39.8046 H           1 B65       0.0424
     36 H11        26.6410   50.1903   41.1660 H           1 B65       0.0424
     37 H12        23.6528   50.7472   40.8393 H           1 B65       0.0288
     38 H13        24.6546   52.1307   41.2193 H           1 B65       0.0288
     39 H14        24.1547   49.6230   42.8650 H           1 B65       0.0298
     40 H15        23.7897   51.2930   43.2966 H           1 B65       0.0298
     41 H16        26.6217   50.1482   43.0757 H           1 B65       0.0695
@<TRIPOS>BOND
     1     1     2  ar
     2     1     6  ar
     3     2     3  ar
     4     3     4  ar
     5     4     5  ar
     6     5     6  ar
     7     6     7   1
     8     7     8   1
     9     8     9  ar
    10     8    10  ar
    11     9    13  ar
    12    10    11  ar
    13    11    12  ar
    14    12    13  ar
    15    13    14   1
    16    14    15   1
    17    15    16   1
    18    16    17   1
    19    17    18   1
    20    17    22   1
    21    18    19  ar
    22    18    20  ar
    23    18    21  ar
    24    22    23  ar
    25    22    24  ar
    26    22    25  ar
    27     1    26   1
    28     2    27   1
    29     3    28   1
    30     4    29   1
    31     5    30   1
    32     9    31   1
    33    10    32   1
    34    11    33   1
    35    12    34   1
    36    14    35   1
    37    14    36   1
    38    15    37   1
    39    15    38   1
    40    16    39   1
    41    16    40   1
    42    17    41   1
@<TRIPOS>SUBSTRUCTURE
     1  B65      1

