@<TRIPOS>MOLECULE
2zcq_ligand_017
    41    42
SMALL
GAST_HUCK
****
This file was generated by PARSER (from files_GN.cpp)

@<TRIPOS>ATOM
      1 CAL        27.0595   47.4602   44.8331 C.ar        1 B65      -0.0285
      2 CAH        27.7749   46.4237   44.2060 C.ar        1 B65      -0.0697
      3 CAG        27.0846   45.4100   43.5145 C.ar        1 B65      -0.0723
      4 CAI        25.6795   45.4252   43.4619 C.ar        1 B65      -0.0697
      5 CAM        24.9625   46.4588   44.0901 C.ar        1 B65      -0.0285
      6 CAU        25.6469   47.4957   44.7613 C.ar        1 B65       0.1159
      7 OAS        24.9232   48.5097   45.3350 O.3         1 B65      -0.2597
      8 CAV        25.0133   49.6912   44.6408 C.ar        1 B65       0.1094
      9 CAO        24.4316   49.8545   43.3613 C.ar        1 B65      -0.0276
     10 CAN        25.6443   50.7911   45.2556 C.ar        1 B65      -0.0354
     11 CAJ        25.7410   52.0212   44.5868 C.ar        1 B65      -0.0762
     12 CAK        25.1811   52.1676   43.3041 C.ar        1 B65      -0.0708
     13 CAT        24.5082   51.0884   42.6766 C.ar        1 B65      -0.0509
     14 CAQ        23.8582   51.2878   41.3540 C.3         1 B65      -0.0214
     15 CAP        24.8614   51.3952   40.1689 C.3         1 B65      -0.0405
     16 CAR        25.0577   50.0612   39.3838 C.3         1 B65      -0.0165
     17 CAW        26.1681   50.0306   38.2830 C.3         1 B65       0.1121
     18 PAX        26.1493   51.3306   37.2286 P.3         1 B65       0.0795
     19 OAB        26.8919   51.1214   36.0110 O.co2       1 B65      -0.5610
     20 OAC        24.8072   51.7287   36.8709 O.co2       1 B65      -0.5610
     21 OAA        26.7744   52.4525   37.8863 O.co2       1 B65      -0.5610
     22 SAY        26.0534   48.4675   37.3658 S.o2        1 B65      -0.1731
     23 OAF        26.2693   47.1650   38.4247 O.co2       1 B65      -0.4830
     24 OAE        27.2506   48.3858   36.1702 O.co2       1 B65      -0.4830
     25 OAD        24.5299   48.3356   36.6394 O.co2       1 B65      -0.4830
     26 H1         27.5698   48.1965   45.3316 H           1 B65       0.0552
     27 H2         28.8002   46.4150   44.2418 H           1 B65       0.0590
     28 H3         27.6041   44.6543   43.0622 H           1 B65       0.0528
     29 H4         25.1769   44.6850   42.9688 H           1 B65       0.0590
     30 H5         23.9439   46.4672   44.0497 H           1 B65       0.0552
     31 H6         23.9576   49.0622   42.9265 H           1 B65       0.0488
     32 H7         26.0243   50.6976   46.1976 H           1 B65       0.0496
     33 H8         26.2047   52.8122   45.0434 H           1 B65       0.0573
     34 H9         25.2484   53.0764   42.8414 H           1 B65       0.0470
     35 H10        23.2617   52.2072   41.4044 H           1 B65       0.0424
     36 H11        23.1397   50.4882   41.1538 H           1 B65       0.0424
     37 H12        25.8408   51.7443   40.5069 H           1 B65       0.0288
     38 H13        24.4703   52.1421   39.4788 H           1 B65       0.0288
     39 H14        24.0991   49.8039   38.9267 H           1 B65       0.0298
     40 H15        25.2912   49.2843   40.1130 H           1 B65       0.0298
     41 H16        27.1479   50.0290   38.7754 H           1 B65       0.0695
@<TRIPOS>BOND
     1     1     2  ar
     2     1     6  ar
     3     2     3  ar
     4     3     4  ar
     5     4     5  ar
     6     5     6  ar
     7     6     7   1
     8     7     8   1
     9     8     9  ar
    10     8    10  ar
    11     9    13  ar
    12    10    11  ar
    13    11    12  ar
    14    12    13  ar
    15    13    14   1
    16    14    15   1
    17    15    16   1
    18    16    17   1
    19    17    18   1
    20    17    22   1
    21    18    19  ar
    22    18    20  ar
    23    18    21  ar
    24    22    23  ar
    25    22    24  ar
    26    22    25  ar
    27     1    26   1
    28     2    27   1
    29     3    28   1
    30     4    29   1
    31     5    30   1
    32     9    31   1
    33    10    32   1
    34    11    33   1
    35    12    34   1
    36    14    35   1
    37    14    36   1
    38    15    37   1
    39    15    38   1
    40    16    39   1
    41    16    40   1
    42    17    41   1
@<TRIPOS>SUBSTRUCTURE
     1  B65      1

