@<TRIPOS>MOLECULE
2zcq_ligand_048
    41    42
SMALL
GAST_HUCK
****
This file was generated by PARSER (from files_GN.cpp)

@<TRIPOS>ATOM
      1 CAL        23.7717   51.4498   38.7883 C.ar        1 B65      -0.0285
      2 CAH        22.9817   52.4872   38.2561 C.ar        1 B65      -0.0697
      3 CAG        22.6749   53.6109   39.0443 C.ar        1 B65      -0.0723
      4 CAI        23.1523   53.6977   40.3650 C.ar        1 B65      -0.0697
      5 CAM        23.9518   52.6650   40.8906 C.ar        1 B65      -0.0285
      6 CAU        24.2859   51.5478   40.0993 C.ar        1 B65       0.1159
      7 OAS        25.0464   50.5414   40.6342 O.3         1 B65      -0.2597
      8 CAV        26.3754   50.6919   40.3396 C.ar        1 B65       0.1094
      9 CAO        26.9120   50.0512   39.2041 C.ar        1 B65      -0.0276
     10 CAN        27.2328   51.4121   41.1966 C.ar        1 B65      -0.0354
     11 CAJ        28.6047   51.5196   40.8992 C.ar        1 B65      -0.0762
     12 CAK        29.1265   50.8938   39.7520 C.ar        1 B65      -0.0708
     13 CAT        28.2891   50.1378   38.8961 C.ar        1 B65      -0.0509
     14 CAQ        28.8315   49.4592   37.6909 C.3         1 B65      -0.0214
     15 CAP        28.5987   47.9192   37.6436 C.3         1 B65      -0.0405
     16 CAR        27.4819   47.3665   36.7028 C.3         1 B65      -0.0165
     17 CAW        27.1885   47.9554   35.2739 C.3         1 B65       0.1121
     18 PAX        28.4728   48.5017   34.3458 P.3         1 B65       0.0795
     19 OAB        29.7698   48.3237   34.9602 O.co2       1 B65      -0.5610
     20 OAC        28.5704   47.7830   33.0919 O.co2       1 B65      -0.5610
     21 OAA        28.4115   49.8962   33.9864 O.co2       1 B65      -0.5610
     22 SAY        25.7903   49.1267   35.2563 S.o2        1 B65      -0.1731
     23 OAF        25.2826   49.3608   33.6595 O.co2       1 B65      -0.4830
     24 OAE        26.1915   50.6191   35.9395 O.co2       1 B65      -0.4830
     25 OAD        24.4870   48.4914   36.1236 O.co2       1 B65      -0.4830
     26 H1         23.9790   50.6329   38.2113 H           1 B65       0.0552
     27 H2         22.6236   52.4147   37.3010 H           1 B65       0.0590
     28 H3         22.0968   54.3631   38.6613 H           1 B65       0.0528
     29 H4         22.9217   54.5086   40.9429 H           1 B65       0.0590
     30 H5         24.2974   52.7306   41.8496 H           1 B65       0.0552
     31 H6         26.2922   49.5155   38.5963 H           1 B65       0.0488
     32 H7         26.8578   51.8601   42.0356 H           1 B65       0.0496
     33 H8         29.2175   52.0584   41.5158 H           1 B65       0.0573
     34 H9         30.1245   50.9965   39.5518 H           1 B65       0.0470
     35 H10        29.9047   49.6394   37.6136 H           1 B65       0.0424
     36 H11        28.3976   49.9367   36.8237 H           1 B65       0.0424
     37 H12        28.3874   47.5552   38.6528 H           1 B65       0.0288
     38 H13        29.5387   47.4397   37.3585 H           1 B65       0.0288
     39 H14        26.5529   47.3562   37.2742 H           1 B65       0.0298
     40 H15        27.7303   46.3056   36.5610 H           1 B65       0.0298
     41 H16        26.7911   47.1108   34.7072 H           1 B65       0.0695
@<TRIPOS>BOND
     1     1     2  ar
     2     1     6  ar
     3     2     3  ar
     4     3     4  ar
     5     4     5  ar
     6     5     6  ar
     7     6     7   1
     8     7     8   1
     9     8     9  ar
    10     8    10  ar
    11     9    13  ar
    12    10    11  ar
    13    11    12  ar
    14    12    13  ar
    15    13    14   1
    16    14    15   1
    17    15    16   1
    18    16    17   1
    19    17    18   1
    20    17    22   1
    21    18    19  ar
    22    18    20  ar
    23    18    21  ar
    24    22    23  ar
    25    22    24  ar
    26    22    25  ar
    27     1    26   1
    28     2    27   1
    29     3    28   1
    30     4    29   1
    31     5    30   1
    32     9    31   1
    33    10    32   1
    34    11    33   1
    35    12    34   1
    36    14    35   1
    37    14    36   1
    38    15    37   1
    39    15    38   1
    40    16    39   1
    41    16    40   1
    42    17    41   1
@<TRIPOS>SUBSTRUCTURE
     1  B65      1

