@<TRIPOS>MOLECULE
2zcq_ligand_052
    41    42
SMALL
GAST_HUCK
****
This file was generated by PARSER (from files_GN.cpp)

@<TRIPOS>ATOM
      1 CAL        26.6592   48.9610   35.1407 C.ar        1 B65      -0.0285
      2 CAH        27.8006   48.8190   34.3284 C.ar        1 B65      -0.0697
      3 CAG        28.0352   47.6045   33.6570 C.ar        1 B65      -0.0723
      4 CAI        27.1265   46.5382   33.7966 C.ar        1 B65      -0.0697
      5 CAM        25.9944   46.6778   34.6161 C.ar        1 B65      -0.0285
      6 CAU        25.7601   47.8845   35.3136 C.ar        1 B65       0.1159
      7 OAS        24.6448   47.9603   36.1175 O.3         1 B65      -0.2597
      8 CAV        24.9145   48.2038   37.4363 C.ar        1 B65       0.1094
      9 CAO        24.4728   49.4257   37.9807 C.ar        1 B65      -0.0276
     10 CAN        25.6045   47.2883   38.2560 C.ar        1 B65      -0.0354
     11 CAJ        25.9142   47.6257   39.5853 C.ar        1 B65      -0.0762
     12 CAK        25.5383   48.8828   40.0945 C.ar        1 B65      -0.0708
     13 CAT        24.8263   49.8119   39.2949 C.ar        1 B65      -0.0509
     14 CAQ        24.4458   51.1463   39.8487 C.3         1 B65      -0.0214
     15 CAP        24.4895   52.3622   38.8552 C.3         1 B65      -0.0405
     16 CAR        23.0746   52.8746   38.4118 C.3         1 B65      -0.0165
     17 CAW        22.5153   54.2211   39.0001 C.3         1 B65       0.1121
     18 PAX        22.8996   54.6316   40.5843 P.3         1 B65       0.0795
     19 OAB        23.6563   53.6284   41.2955 O.co2       1 B65      -0.5610
     20 OAC        23.7520   55.7944   40.5750 O.co2       1 B65      -0.5610
     21 OAA        21.7875   54.9788   41.4441 O.co2       1 B65      -0.5610
     22 SAY        20.7209   54.3205   38.6901 S.o2        1 B65      -0.1731
     23 OAF        20.2062   55.9272   38.7576 O.co2       1 B65      -0.4830
     24 OAE        19.8712   53.4229   39.8418 O.co2       1 B65      -0.4830
     25 OAD        20.3531   53.7034   37.1598 O.co2       1 B65      -0.4830
     26 H1         26.4966   49.8484   35.6212 H           1 B65       0.0552
     27 H2         28.4570   49.5940   34.2224 H           1 B65       0.0590
     28 H3         28.8677   47.4964   33.0695 H           1 B65       0.0528
     29 H4         27.2927   45.6576   33.2987 H           1 B65       0.0590
     30 H5         25.3407   45.8996   34.7132 H           1 B65       0.0552
     31 H6         23.9301   50.0540   37.3864 H           1 B65       0.0488
     32 H7         25.9017   46.3846   37.8816 H           1 B65       0.0496
     33 H8         26.4216   46.9636   40.1771 H           1 B65       0.0573
     34 H9         25.7868   49.1140   41.0613 H           1 B65       0.0470
     35 H10        25.1048   51.3885   40.6854 H           1 B65       0.0424
     36 H11        23.4476   51.0333   40.2796 H           1 B65       0.0424
     37 H12        25.0666   52.0883   37.9658 H           1 B65       0.0288
     38 H13        25.0510   53.1810   39.3092 H           1 B65       0.0288
     39 H14        22.3405   52.0849   38.5699 H           1 B65       0.0298
     40 H15        23.1166   52.9972   37.3256 H           1 B65       0.0298
     41 H16        22.9291   55.0169   38.3808 H           1 B65       0.0695
@<TRIPOS>BOND
     1     1     2  ar
     2     1     6  ar
     3     2     3  ar
     4     3     4  ar
     5     4     5  ar
     6     5     6  ar
     7     6     7   1
     8     7     8   1
     9     8     9  ar
    10     8    10  ar
    11     9    13  ar
    12    10    11  ar
    13    11    12  ar
    14    12    13  ar
    15    13    14   1
    16    14    15   1
    17    15    16   1
    18    16    17   1
    19    17    18   1
    20    17    22   1
    21    18    19  ar
    22    18    20  ar
    23    18    21  ar
    24    22    23  ar
    25    22    24  ar
    26    22    25  ar
    27     1    26   1
    28     2    27   1
    29     3    28   1
    30     4    29   1
    31     5    30   1
    32     9    31   1
    33    10    32   1
    34    11    33   1
    35    12    34   1
    36    14    35   1
    37    14    36   1
    38    15    37   1
    39    15    38   1
    40    16    39   1
    41    16    40   1
    42    17    41   1
@<TRIPOS>SUBSTRUCTURE
     1  B65      1

