@<TRIPOS>MOLECULE
2zcq_ligand_036
    41    42
SMALL
GAST_HUCK
****
This file was generated by PARSER (from files_GN.cpp)

@<TRIPOS>ATOM
      1 CAL        24.7857   47.3605   41.5466 C.ar        1 B65      -0.0285
      2 CAH        24.6521   47.8672   42.8526 C.ar        1 B65      -0.0697
      3 CAG        24.8117   47.0179   43.9585 C.ar        1 B65      -0.0723
      4 CAI        25.0773   45.6492   43.7612 C.ar        1 B65      -0.0697
      5 CAM        25.2153   45.1437   42.4562 C.ar        1 B65      -0.0285
      6 CAU        25.1142   45.9988   41.3427 C.ar        1 B65       0.1159
      7 OAS        25.3138   45.4687   40.0897 O.3         1 B65      -0.2597
      8 CAV        26.4968   45.8804   39.5300 C.ar        1 B65       0.1094
      9 CAO        26.4418   46.7308   38.4063 C.ar        1 B65      -0.0276
     10 CAN        27.7586   45.4710   40.0148 C.ar        1 B65      -0.0354
     11 CAJ        28.9398   45.9997   39.4526 C.ar        1 B65      -0.0762
     12 CAK        28.8630   46.9164   38.3944 C.ar        1 B65      -0.0708
     13 CAT        27.6128   47.2837   37.8448 C.ar        1 B65      -0.0509
     14 CAQ        27.5335   48.2504   36.7099 C.3         1 B65      -0.0214
     15 CAP        27.5702   49.7442   37.1463 C.3         1 B65      -0.0405
     16 CAR        26.3959   50.2224   38.0652 C.3         1 B65      -0.0165
     17 CAW        25.5288   51.3919   37.4912 C.3         1 B65       0.1121
     18 PAX        24.6146   52.1569   38.6667 P.3         1 B65       0.0795
     19 OAB        25.5091   52.8666   39.5370 O.co2       1 B65      -0.5610
     20 OAC        23.7351   53.1551   38.1308 O.co2       1 B65      -0.5610
     21 OAA        23.8604   51.2282   39.4679 O.co2       1 B65      -0.5610
     22 SAY        24.4981   50.8357   36.1016 S.o2        1 B65      -0.1731
     23 OAF        23.0653   51.7222   35.9516 O.co2       1 B65      -0.4830
     24 OAE        24.0587   49.2174   36.2835 O.co2       1 B65      -0.4830
     25 OAD        25.3697   51.0158   34.6672 O.co2       1 B65      -0.4830
     26 H1         24.6704   47.9843   40.7440 H           1 B65       0.0552
     27 H2         24.4413   48.8594   42.9946 H           1 B65       0.0590
     28 H3         24.7304   47.3914   44.9080 H           1 B65       0.0528
     29 H4         25.1767   45.0284   44.5668 H           1 B65       0.0590
     30 H5         25.4167   44.1470   42.3250 H           1 B65       0.0552
     31 H6         25.5242   46.9808   38.0231 H           1 B65       0.0488
     32 H7         27.8161   44.8201   40.7981 H           1 B65       0.0496
     33 H8         29.8462   45.7182   39.8315 H           1 B65       0.0573
     34 H9         29.7330   47.3007   38.0121 H           1 B65       0.0470
     35 H10        26.6254   48.0738   36.1304 H           1 B65       0.0424
     36 H11        28.3714   48.0644   36.0306 H           1 B65       0.0424
     37 H12        27.5964   50.3409   36.2334 H           1 B65       0.0288
     38 H13        28.5225   49.9249   37.6571 H           1 B65       0.0288
     39 H14        26.8427   50.5260   39.0166 H           1 B65       0.0298
     40 H15        25.7321   49.3942   38.3059 H           1 B65       0.0298
     41 H16        26.2093   52.1479   37.0944 H           1 B65       0.0695
@<TRIPOS>BOND
     1     1     2  ar
     2     1     6  ar
     3     2     3  ar
     4     3     4  ar
     5     4     5  ar
     6     5     6  ar
     7     6     7   1
     8     7     8   1
     9     8     9  ar
    10     8    10  ar
    11     9    13  ar
    12    10    11  ar
    13    11    12  ar
    14    12    13  ar
    15    13    14   1
    16    14    15   1
    17    15    16   1
    18    16    17   1
    19    17    18   1
    20    17    22   1
    21    18    19  ar
    22    18    20  ar
    23    18    21  ar
    24    22    23  ar
    25    22    24  ar
    26    22    25  ar
    27     1    26   1
    28     2    27   1
    29     3    28   1
    30     4    29   1
    31     5    30   1
    32     9    31   1
    33    10    32   1
    34    11    33   1
    35    12    34   1
    36    14    35   1
    37    14    36   1
    38    15    37   1
    39    15    38   1
    40    16    39   1
    41    16    40   1
    42    17    41   1
@<TRIPOS>SUBSTRUCTURE
     1  B65      1

