@<TRIPOS>MOLECULE
2zcr_ligand_024
    52    53
SMALL
GAST_HUCK
****
This file was generated by PARSER (from files_GN.cpp)

@<TRIPOS>ATOM
      1 CAA        16.5529   51.5993   36.5793 C.3         1 B69      -0.0651
      2 CAP        17.6215   51.6234   35.4635 C.3         1 B69      -0.0541
      3 CAQ        18.3076   50.2430   35.2400 C.3         1 B69      -0.0435
      4 CAS        19.7391   50.3295   34.6333 C.3         1 B69      -0.0191
      5 CAV        20.6866   51.0418   35.5390 C.ar        1 B69      -0.0429
      6 CAI        21.3358   50.3440   36.5848 C.ar        1 B69      -0.0600
      7 CAM        22.0692   51.0355   37.5646 C.ar        1 B69      -0.0616
      8 CAH        20.8551   52.4412   35.4650 C.ar        1 B69      -0.0600
      9 CAL        21.5654   53.1348   36.4622 C.ar        1 B69      -0.0616
     10 CAX        22.1689   52.4497   37.5453 C.ar        1 B69      -0.0283
     11 CAY        22.8223   53.1644   38.5969 C.ar        1 B69      -0.0283
     12 CAO        22.2819   54.3645   39.1192 C.ar        1 B69      -0.0616
     13 CAK        22.9396   55.0829   40.1371 C.ar        1 B69      -0.0600
     14 CAN        24.0203   52.6820   39.1757 C.ar        1 B69      -0.0616
     15 CAJ        24.6594   53.3774   40.2109 C.ar        1 B69      -0.0600
     16 CAW        24.1586   54.6225   40.6752 C.ar        1 B69      -0.0429
     17 CAT        24.8793   55.4222   41.7148 C.3         1 B69      -0.0190
     18 CAR        26.4310   55.2540   41.6859 C.3         1 B69      -0.0402
     19 CAU        27.2295   56.2999   42.5077 C.3         1 B69      -0.0165
     20 CAZ        26.8400   57.8061   42.2582 C.3         1 B69       0.1121
     21 PBA        27.9645   58.6996   41.3882 P.3         1 B69       0.0795
     22 OAC        27.9622   60.1132   41.7112 O.co2       1 B69      -0.5610
     23 OAD        29.3216   58.2153   41.5262 O.co2       1 B69      -0.5610
     24 OAB        27.6255   58.6576   39.9764 O.co2       1 B69      -0.5610
     25 SBB        26.3688   58.5757   43.8335 S.o2        1 B69      -0.1731
     26 OAG        26.6079   60.2496   43.8601 O.co2       1 B69      -0.4830
     27 OAF        27.2370   57.8839   45.1143 O.co2       1 B69      -0.4830
     28 OAE        24.7124   58.2948   44.0293 O.co2       1 B69      -0.4830
     29 H1         16.0676   52.5755   36.6478 H           1 B69       0.0230
     30 H2         17.0236   51.3743   37.5392 H           1 B69       0.0230
     31 H3         15.7937   50.8448   36.3711 H           1 B69       0.0230
     32 H4         18.3548   52.3797   35.7434 H           1 B69       0.0264
     33 H5         17.1614   51.9512   34.5267 H           1 B69       0.0264
     34 H6         17.6790   49.6553   34.5651 H           1 B69       0.0287
     35 H7         18.3640   49.6997   36.1869 H           1 B69       0.0287
     36 H8         19.6781   50.8203   33.6570 H           1 B69       0.0427
     37 H9         20.1081   49.3157   34.4529 H           1 B69       0.0427
     38 H10        21.2477   49.3273   36.6540 H           1 B69       0.0558
     39 H11        22.4811   50.4919   38.3247 H           1 B69       0.0600
     40 H12        20.4061   52.9784   34.7213 H           1 B69       0.0558
     41 H13        21.6203   54.1520   36.3967 H           1 B69       0.0600
     42 H14        21.3958   54.7251   38.7648 H           1 B69       0.0600
     43 H15        22.5112   55.9463   40.4917 H           1 B69       0.0558
     44 H16        24.4555   51.8252   38.8354 H           1 B69       0.0600
     45 H17        25.5028   52.9819   40.6154 H           1 B69       0.0558
     46 H18        24.5263   55.1192   42.7096 H           1 B69       0.0427
     47 H19        24.6588   56.4927   41.5963 H           1 B69       0.0427
     48 H20        26.8033   55.2610   40.6588 H           1 B69       0.0288
     49 H21        26.6714   54.2767   42.1212 H           1 B69       0.0288
     50 H22        28.2969   56.1396   42.3061 H           1 B69       0.0298
     51 H23        27.0953   56.0195   43.5589 H           1 B69       0.0298
     52 H24        25.9216   57.8227   41.6593 H           1 B69       0.0695
@<TRIPOS>BOND
     1     1     2   1
     2     2     3   1
     3     3     4   1
     4     4     5   1
     5     5     6  ar
     6     5     8  ar
     7     6     7  ar
     8     7    10  ar
     9     8     9  ar
    10     9    10  ar
    11    10    11   1
    12    11    12  ar
    13    11    14  ar
    14    12    13  ar
    15    13    16  ar
    16    14    15  ar
    17    15    16  ar
    18    16    17   1
    19    17    18   1
    20    18    19   1
    21    19    20   1
    22    20    21   1
    23    20    25   1
    24    21    22  ar
    25    21    23  ar
    26    21    24  ar
    27    25    26  ar
    28    25    27  ar
    29    25    28  ar
    30     1    29   1
    31     1    30   1
    32     1    31   1
    33     2    32   1
    34     2    33   1
    35     3    34   1
    36     3    35   1
    37     4    36   1
    38     4    37   1
    39     6    38   1
    40     7    39   1
    41     8    40   1
    42     9    41   1
    43    12    42   1
    44    13    43   1
    45    14    44   1
    46    15    45   1
    47    17    46   1
    48    17    47   1
    49    18    48   1
    50    18    49   1
    51    19    50   1
    52    19    51   1
    53    20    52   1
@<TRIPOS>SUBSTRUCTURE
     1  B69      1

