@<TRIPOS>MOLECULE
2zcr_ligand_051
    52    53
SMALL
GAST_HUCK
****
This file was generated by PARSER (from files_GN.cpp)

@<TRIPOS>ATOM
      1 CAA        19.7166   56.0812   34.9203 C.3         1 B69      -0.0651
      2 CAP        20.0076   54.9336   35.9120 C.3         1 B69      -0.0541
      3 CAQ        19.1258   55.0033   37.1905 C.3         1 B69      -0.0435
      4 CAS        19.1943   53.7656   38.1311 C.3         1 B69      -0.0191
      5 CAV        20.4568   52.9798   38.0853 C.ar        1 B69      -0.0429
      6 CAI        21.7042   53.5928   38.3518 C.ar        1 B69      -0.0600
      7 CAM        22.9010   52.8674   38.2298 C.ar        1 B69      -0.0616
      8 CAH        20.4364   51.5999   37.7770 C.ar        1 B69      -0.0600
      9 CAL        21.6306   50.8648   37.6864 C.ar        1 B69      -0.0616
     10 CAX        22.8819   51.4945   37.8871 C.ar        1 B69      -0.0283
     11 CAY        24.0932   50.7641   37.7650 C.ar        1 B69      -0.0283
     12 CAO        25.1278   51.2272   36.9203 C.ar        1 B69      -0.0616
     13 CAK        26.3088   50.4826   36.7589 C.ar        1 B69      -0.0600
     14 CAN        24.2830   49.5537   38.4704 C.ar        1 B69      -0.0616
     15 CAJ        25.4707   48.8187   38.3189 C.ar        1 B69      -0.0600
     16 CAW        26.4903   49.2625   37.4484 C.ar        1 B69      -0.0429
     17 CAT        27.6964   48.4257   37.2261 C.3         1 B69      -0.0190
     18 CAR        28.7338   48.4633   38.3930 C.3         1 B69      -0.0402
     19 CAU        30.1600   48.9564   37.9897 C.3         1 B69      -0.0165
     20 CAZ        31.3247   48.3233   38.8389 C.3         1 B69       0.1121
     21 PBA        31.8207   49.2454   40.1324 P.3         1 B69       0.0795
     22 OAC        30.7043   49.8162   40.8592 O.co2       1 B69      -0.5610
     23 OAD        32.5639   48.4366   41.0699 O.co2       1 B69      -0.5610
     24 OAB        32.6885   50.3436   39.7530 O.co2       1 B69      -0.5610
     25 SBB        32.7275   47.8110   37.7997 S.o2        1 B69      -0.1731
     26 OAG        33.5747   49.1443   37.2012 O.co2       1 B69      -0.4830
     27 OAF        32.1282   46.9096   36.5001 O.co2       1 B69      -0.4830
     28 OAE        33.7860   46.8451   38.6985 O.co2       1 B69      -0.4830
     29 H1         20.4729   56.0810   34.1331 H           1 B69       0.0230
     30 H2         19.7386   57.0486   35.4268 H           1 B69       0.0230
     31 H3         18.7321   55.9466   34.4584 H           1 B69       0.0230
     32 H4         21.0613   54.9968   36.1987 H           1 B69       0.0264
     33 H5         19.8517   53.9802   35.4000 H           1 B69       0.0264
     34 H6         18.0823   55.1383   36.9004 H           1 B69       0.0287
     35 H7         19.4227   55.8943   37.7522 H           1 B69       0.0287
     36 H8         18.3469   53.1197   37.8825 H           1 B69       0.0427
     37 H9         19.0458   54.1015   39.1590 H           1 B69       0.0427
     38 H10        21.7493   54.5793   38.6160 H           1 B69       0.0558
     39 H11        23.7909   53.3508   38.3947 H           1 B69       0.0600
     40 H12        19.5526   51.1211   37.5990 H           1 B69       0.0558
     41 H13        21.5802   49.8689   37.4521 H           1 B69       0.0600
     42 H14        25.0187   52.1013   36.3968 H           1 B69       0.0600
     43 H15        27.0283   50.8340   36.1256 H           1 B69       0.0558
     44 H16        23.5613   49.1998   39.1058 H           1 B69       0.0600
     45 H17        25.5833   47.9459   38.8441 H           1 B69       0.0558
     46 H18        28.1563   48.7070   36.2752 H           1 B69       0.0427
     47 H19        27.3714   47.3898   37.0820 H           1 B69       0.0427
     48 H20        28.8177   47.4421   38.7767 H           1 B69       0.0288
     49 H21        28.3690   49.0798   39.2209 H           1 B69       0.0288
     50 H22        30.1766   50.0488   38.0492 H           1 B69       0.0298
     51 H23        30.3086   48.7154   36.9360 H           1 B69       0.0298
     52 H24        30.9702   47.3838   39.2687 H           1 B69       0.0695
@<TRIPOS>BOND
     1     1     2   1
     2     2     3   1
     3     3     4   1
     4     4     5   1
     5     5     6  ar
     6     5     8  ar
     7     6     7  ar
     8     7    10  ar
     9     8     9  ar
    10     9    10  ar
    11    10    11   1
    12    11    12  ar
    13    11    14  ar
    14    12    13  ar
    15    13    16  ar
    16    14    15  ar
    17    15    16  ar
    18    16    17   1
    19    17    18   1
    20    18    19   1
    21    19    20   1
    22    20    21   1
    23    20    25   1
    24    21    22  ar
    25    21    23  ar
    26    21    24  ar
    27    25    26  ar
    28    25    27  ar
    29    25    28  ar
    30     1    29   1
    31     1    30   1
    32     1    31   1
    33     2    32   1
    34     2    33   1
    35     3    34   1
    36     3    35   1
    37     4    36   1
    38     4    37   1
    39     6    38   1
    40     7    39   1
    41     8    40   1
    42     9    41   1
    43    12    42   1
    44    13    43   1
    45    14    44   1
    46    15    45   1
    47    17    46   1
    48    17    47   1
    49    18    48   1
    50    18    49   1
    51    19    50   1
    52    19    51   1
    53    20    52   1
@<TRIPOS>SUBSTRUCTURE
     1  B69      1

