@<TRIPOS>MOLECULE
2zcr_ligand_018
    52    53
SMALL
GAST_HUCK
****
This file was generated by PARSER (from files_GN.cpp)

@<TRIPOS>ATOM
      1 CAA        21.5003   50.9210   37.5331 C.3         1 B69      -0.0651
      2 CAP        22.7480   51.7357   37.1246 C.3         1 B69      -0.0541
      3 CAQ        23.4999   52.4050   38.3070 C.3         1 B69      -0.0435
      4 CAS        22.8644   53.7126   38.8687 C.3         1 B69      -0.0191
      5 CAV        23.5976   54.4199   39.9652 C.ar        1 B69      -0.0429
      6 CAI        24.8525   53.9921   40.4602 C.ar        1 B69      -0.0600
      7 CAM        25.5329   54.7193   41.4456 C.ar        1 B69      -0.0616
      8 CAH        23.0384   55.5950   40.5252 C.ar        1 B69      -0.0600
      9 CAL        23.7225   56.3320   41.5123 C.ar        1 B69      -0.0616
     10 CAX        24.9853   55.9037   41.9859 C.ar        1 B69      -0.0283
     11 CAY        25.7009   56.6250   42.9840 C.ar        1 B69      -0.0283
     12 CAO        25.8584   58.0294   42.9093 C.ar        1 B69      -0.0616
     13 CAK        26.5855   58.7253   43.8923 C.ar        1 B69      -0.0600
     14 CAN        26.3138   55.9400   44.0614 C.ar        1 B69      -0.0616
     15 CAJ        27.0521   56.6321   45.0344 C.ar        1 B69      -0.0600
     16 CAW        27.1869   58.0356   44.9697 C.ar        1 B69      -0.0429
     17 CAT        27.9483   58.7803   46.0081 C.3         1 B69      -0.0190
     18 CAR        29.2220   59.5005   45.4580 C.3         1 B69      -0.0402
     19 CAU        30.5908   59.0924   46.1030 C.3         1 B69      -0.0165
     20 CAZ        31.2681   60.2025   46.9761 C.3         1 B69       0.1121
     21 PBA        32.8974   59.9367   47.2460 P.3         1 B69       0.0795
     22 OAC        33.5318   61.1305   47.7452 O.co2       1 B69      -0.5610
     23 OAD        33.1481   58.8629   48.1741 O.co2       1 B69      -0.5610
     24 OAB        33.5862   59.6128   46.0206 O.co2       1 B69      -0.5610
     25 SBB        30.3784   60.5328   48.5338 S.o2        1 B69      -0.1731
     26 OAG        31.2725   60.0661   49.8922 O.co2       1 B69      -0.4830
     27 OAF        28.9035   59.7121   48.5935 O.co2       1 B69      -0.4830
     28 OAE        30.0668   62.1911   48.6367 O.co2       1 B69      -0.4830
     29 H1         21.0497   50.4693   36.6478 H           1 B69       0.0230
     30 H2         20.7583   51.5581   38.0133 H           1 B69       0.0230
     31 H3         21.7794   50.1205   38.2195 H           1 B69       0.0230
     32 H4         22.4652   52.4927   36.3899 H           1 B69       0.0264
     33 H5         23.4406   51.0480   36.6328 H           1 B69       0.0264
     34 H6         24.5062   52.6486   37.9561 H           1 B69       0.0287
     35 H7         23.6041   51.6786   39.1168 H           1 B69       0.0287
     36 H8         21.8621   53.4810   39.2308 H           1 B69       0.0427
     37 H9         22.7597   54.4169   38.0399 H           1 B69       0.0427
     38 H10        25.3014   53.1495   40.1071 H           1 B69       0.0558
     39 H11        26.4473   54.3851   41.7555 H           1 B69       0.0600
     40 H12        22.1245   55.9318   40.2105 H           1 B69       0.0558
     41 H13        23.2862   57.1787   41.8905 H           1 B69       0.0600
     42 H14        25.4662   58.5543   42.1231 H           1 B69       0.0600
     43 H15        26.6827   59.7404   43.8116 H           1 B69       0.0558
     44 H16        26.2221   54.9247   44.1521 H           1 B69       0.0600
     45 H17        27.4901   56.1004   45.7911 H           1 B69       0.0558
     46 H18        28.2178   58.1038   46.8210 H           1 B69       0.0427
     47 H19        27.2742   59.5213   46.4478 H           1 B69       0.0427
     48 H20        29.0665   60.5787   45.5612 H           1 B69       0.0288
     49 H21        29.3009   59.3251   44.3784 H           1 B69       0.0288
     50 H22        31.2526   58.8357   45.2713 H           1 B69       0.0298
     51 H23        30.4942   58.1768   46.6898 H           1 B69       0.0298
     52 H24        31.2315   61.1343   46.4112 H           1 B69       0.0695
@<TRIPOS>BOND
     1     1     2   1
     2     2     3   1
     3     3     4   1
     4     4     5   1
     5     5     6  ar
     6     5     8  ar
     7     6     7  ar
     8     7    10  ar
     9     8     9  ar
    10     9    10  ar
    11    10    11   1
    12    11    12  ar
    13    11    14  ar
    14    12    13  ar
    15    13    16  ar
    16    14    15  ar
    17    15    16  ar
    18    16    17   1
    19    17    18   1
    20    18    19   1
    21    19    20   1
    22    20    21   1
    23    20    25   1
    24    21    22  ar
    25    21    23  ar
    26    21    24  ar
    27    25    26  ar
    28    25    27  ar
    29    25    28  ar
    30     1    29   1
    31     1    30   1
    32     1    31   1
    33     2    32   1
    34     2    33   1
    35     3    34   1
    36     3    35   1
    37     4    36   1
    38     4    37   1
    39     6    38   1
    40     7    39   1
    41     8    40   1
    42     9    41   1
    43    12    42   1
    44    13    43   1
    45    14    44   1
    46    15    45   1
    47    17    46   1
    48    17    47   1
    49    18    48   1
    50    18    49   1
    51    19    50   1
    52    19    51   1
    53    20    52   1
@<TRIPOS>SUBSTRUCTURE
     1  B69      1

