@<TRIPOS>MOLECULE
2zcr_ligand_086
    52    53
SMALL
GAST_HUCK
****
This file was generated by PARSER (from files_GN.cpp)

@<TRIPOS>ATOM
      1 CAA        26.2578   49.4430   35.0769 C.3         1 B69      -0.0651
      2 CAP        25.7054   50.1546   36.3355 C.3         1 B69      -0.0541
      3 CAQ        24.1564   50.2562   36.3378 C.3         1 B69      -0.0435
      4 CAS        23.5135   50.2705   37.7517 C.3         1 B69      -0.0191
      5 CAV        23.8301   51.4615   38.5860 C.ar        1 B69      -0.0429
      6 CAI        23.3425   52.7445   38.2306 C.ar        1 B69      -0.0600
      7 CAM        23.6051   53.8637   39.0425 C.ar        1 B69      -0.0616
      8 CAH        24.5725   51.3303   39.7810 C.ar        1 B69      -0.0600
      9 CAL        24.8364   52.4447   40.5932 C.ar        1 B69      -0.0616
     10 CAX        24.3647   53.7222   40.2264 C.ar        1 B69      -0.0283
     11 CAY        24.7210   54.8519   41.0042 C.ar        1 B69      -0.0283
     12 CAO        26.0708   55.2533   41.0687 C.ar        1 B69      -0.0616
     13 CAK        26.4575   56.3512   41.8535 C.ar        1 B69      -0.0600
     14 CAN        23.7568   55.5798   41.7371 C.ar        1 B69      -0.0616
     15 CAJ        24.1515   56.6661   42.5427 C.ar        1 B69      -0.0600
     16 CAW        25.5149   57.0594   42.6353 C.ar        1 B69      -0.0429
     17 CAT        25.9313   58.2021   43.5062 C.3         1 B69      -0.0190
     18 CAR        27.0728   57.8781   44.5226 C.3         1 B69      -0.0402
     19 CAU        28.5232   58.0262   43.9577 C.3         1 B69      -0.0165
     20 CAZ        29.6197   57.0673   44.5397 C.3         1 B69       0.1121
     21 PBA        31.1390   57.5011   43.9720 P.3         1 B69       0.0795
     22 OAC        31.1293   57.6856   42.5403 O.co2       1 B69      -0.5610
     23 OAD        31.5542   58.7535   44.5481 O.co2       1 B69      -0.5610
     24 OAB        32.1783   56.5494   44.2831 O.co2       1 B69      -0.5610
     25 SBB        29.3269   55.3047   44.1664 S.o2        1 B69      -0.1731
     26 OAG        29.0453   55.0857   42.5126 O.co2       1 B69      -0.4830
     27 OAF        27.9980   54.6953   45.0165 O.co2       1 B69      -0.4830
     28 OAE        30.6689   54.3879   44.6331 O.co2       1 B69      -0.4830
     29 H1         27.3501   49.4737   35.0760 H           1 B69       0.0230
     30 H2         25.8964   49.9240   34.1655 H           1 B69       0.0230
     31 H3         25.9456   48.3946   35.0676 H           1 B69       0.0230
     32 H4         26.1364   51.1588   36.3886 H           1 B69       0.0264
     33 H5         26.0446   49.5964   37.2122 H           1 B69       0.0264
     34 H6         23.7437   49.3965   35.8089 H           1 B69       0.0287
     35 H7         23.8555   51.1513   35.7907 H           1 B69       0.0287
     36 H8         23.8181   49.3539   38.2677 H           1 B69       0.0427
     37 H9         22.4256   50.2071   37.6465 H           1 B69       0.0427
     38 H10        22.7856   52.8699   37.3800 H           1 B69       0.0558
     39 H11        23.2537   54.7858   38.7557 H           1 B69       0.0600
     40 H12        24.9236   50.4209   40.0763 H           1 B69       0.0558
     41 H13        25.3741   52.3226   41.4541 H           1 B69       0.0600
     42 H14        26.7804   54.7683   40.5107 H           1 B69       0.0600
     43 H15        27.4366   56.6385   41.8253 H           1 B69       0.0558
     44 H16        22.7761   55.3068   41.7031 H           1 B69       0.0600
     45 H17        23.4371   57.1744   43.0671 H           1 B69       0.0558
     46 H18        25.0734   58.5421   44.0967 H           1 B69       0.0427
     47 H19        26.2231   59.0462   42.8744 H           1 B69       0.0427
     48 H20        26.8993   56.8892   44.9409 H           1 B69       0.0288
     49 H21        26.9827   58.5684   45.3716 H           1 B69       0.0288
     50 H22        28.8162   59.0698   44.1516 H           1 B69       0.0298
     51 H23        28.5155   57.9153   42.8726 H           1 B69       0.0298
     52 H24        29.6338   57.1754   45.6290 H           1 B69       0.0695
@<TRIPOS>BOND
     1     1     2   1
     2     2     3   1
     3     3     4   1
     4     4     5   1
     5     5     6  ar
     6     5     8  ar
     7     6     7  ar
     8     7    10  ar
     9     8     9  ar
    10     9    10  ar
    11    10    11   1
    12    11    12  ar
    13    11    14  ar
    14    12    13  ar
    15    13    16  ar
    16    14    15  ar
    17    15    16  ar
    18    16    17   1
    19    17    18   1
    20    18    19   1
    21    19    20   1
    22    20    21   1
    23    20    25   1
    24    21    22  ar
    25    21    23  ar
    26    21    24  ar
    27    25    26  ar
    28    25    27  ar
    29    25    28  ar
    30     1    29   1
    31     1    30   1
    32     1    31   1
    33     2    32   1
    34     2    33   1
    35     3    34   1
    36     3    35   1
    37     4    36   1
    38     4    37   1
    39     6    38   1
    40     7    39   1
    41     8    40   1
    42     9    41   1
    43    12    42   1
    44    13    43   1
    45    14    44   1
    46    15    45   1
    47    17    46   1
    48    17    47   1
    49    18    48   1
    50    18    49   1
    51    19    50   1
    52    19    51   1
    53    20    52   1
@<TRIPOS>SUBSTRUCTURE
     1  B69      1

