@<TRIPOS>MOLECULE
2zcr_ligand_075
    52    53
SMALL
GAST_HUCK
****
This file was generated by PARSER (from files_GN.cpp)

@<TRIPOS>ATOM
      1 CAA        16.7659   56.6762   36.7198 C.3         1 B69      -0.0651
      2 CAP        16.9675   56.0928   35.3002 C.3         1 B69      -0.0541
      3 CAQ        18.1330   55.0710   35.1924 C.3         1 B69      -0.0435
      4 CAS        19.5633   55.6649   35.3826 C.3         1 B69      -0.0191
      5 CAV        20.4959   54.7107   36.0457 C.ar        1 B69      -0.0429
      6 CAI        20.7774   54.8282   37.4240 C.ar        1 B69      -0.0600
      7 CAM        21.6219   53.9083   38.0659 C.ar        1 B69      -0.0616
      8 CAH        21.0779   53.6406   35.3302 C.ar        1 B69      -0.0600
      9 CAL        21.9146   52.7108   35.9783 C.ar        1 B69      -0.0616
     10 CAX        22.2091   52.8324   37.3578 C.ar        1 B69      -0.0283
     11 CAY        23.0532   51.8986   38.0329 C.ar        1 B69      -0.0283
     12 CAO        22.8834   50.5003   37.8771 C.ar        1 B69      -0.0616
     13 CAK        23.6814   49.5896   38.5958 C.ar        1 B69      -0.0600
     14 CAN        24.0656   52.3505   38.9133 C.ar        1 B69      -0.0616
     15 CAJ        24.8602   51.4406   39.6305 C.ar        1 B69      -0.0600
     16 CAW        24.6785   50.0472   39.4856 C.ar        1 B69      -0.0429
     17 CAT        25.5319   49.0877   40.2382 C.3         1 B69      -0.0190
     18 CAR        26.5603   48.3627   39.3270 C.3         1 B69      -0.0402
     19 CAU        27.6275   47.5557   40.1336 C.3         1 B69      -0.0165
     20 CAZ        28.9769   47.2300   39.4141 C.3         1 B69       0.1121
     21 PBA        29.9232   48.5686   39.0250 P.3         1 B69       0.0795
     22 OAC        31.2927   48.3449   39.4094 O.co2       1 B69      -0.5610
     23 OAD        29.9411   48.8802   37.6204 O.co2       1 B69      -0.5610
     24 OAB        29.5160   49.7609   39.7149 O.co2       1 B69      -0.5610
     25 SBB        28.7482   46.1245   37.9923 S.o2        1 B69      -0.1731
     26 OAG        28.4131   44.5629   38.5451 O.co2       1 B69      -0.4830
     27 OAF        30.1443   46.0858   37.0404 O.co2       1 B69      -0.4830
     28 OAE        27.4741   46.6606   37.0204 O.co2       1 B69      -0.4830
     29 H1         15.9054   57.3475   36.7214 H           1 B69       0.0230
     30 H2         17.6432   57.2365   37.0464 H           1 B69       0.0230
     31 H3         16.5733   55.8746   37.4352 H           1 B69       0.0230
     32 H4         17.1281   56.9056   34.5896 H           1 B69       0.0264
     33 H5         16.0380   55.5902   35.0179 H           1 B69       0.0264
     34 H6         18.0835   54.6156   34.2008 H           1 B69       0.0287
     35 H7         17.9477   54.2727   35.9166 H           1 B69       0.0287
     36 H8         19.5071   56.5889   35.9612 H           1 B69       0.0427
     37 H9         19.9718   55.9502   34.4100 H           1 B69       0.0427
     38 H10        20.3610   55.5825   37.9748 H           1 B69       0.0558
     39 H11        21.7841   54.0219   39.0684 H           1 B69       0.0600
     40 H12        20.9000   53.5341   34.3295 H           1 B69       0.0558
     41 H13        22.3356   51.9621   35.4232 H           1 B69       0.0600
     42 H14        22.1478   50.1291   37.2701 H           1 B69       0.0600
     43 H15        23.5269   48.5866   38.4722 H           1 B69       0.0558
     44 H16        24.2391   53.3520   39.0366 H           1 B69       0.0600
     45 H17        25.5720   51.8074   40.2653 H           1 B69       0.0558
     46 H18        24.8956   48.3501   40.7337 H           1 B69       0.0427
     47 H19        26.0762   49.6203   41.0239 H           1 B69       0.0427
     48 H20        27.0528   49.1104   38.7030 H           1 B69       0.0288
     49 H21        26.0227   47.6798   38.6623 H           1 B69       0.0288
     50 H22        27.1671   46.6162   40.4547 H           1 B69       0.0298
     51 H23        27.8792   48.0961   41.0530 H           1 B69       0.0298
     52 H24        29.5627   46.6505   40.1341 H           1 B69       0.0695
@<TRIPOS>BOND
     1     1     2   1
     2     2     3   1
     3     3     4   1
     4     4     5   1
     5     5     6  ar
     6     5     8  ar
     7     6     7  ar
     8     7    10  ar
     9     8     9  ar
    10     9    10  ar
    11    10    11   1
    12    11    12  ar
    13    11    14  ar
    14    12    13  ar
    15    13    16  ar
    16    14    15  ar
    17    15    16  ar
    18    16    17   1
    19    17    18   1
    20    18    19   1
    21    19    20   1
    22    20    21   1
    23    20    25   1
    24    21    22  ar
    25    21    23  ar
    26    21    24  ar
    27    25    26  ar
    28    25    27  ar
    29    25    28  ar
    30     1    29   1
    31     1    30   1
    32     1    31   1
    33     2    32   1
    34     2    33   1
    35     3    34   1
    36     3    35   1
    37     4    36   1
    38     4    37   1
    39     6    38   1
    40     7    39   1
    41     8    40   1
    42     9    41   1
    43    12    42   1
    44    13    43   1
    45    14    44   1
    46    15    45   1
    47    17    46   1
    48    17    47   1
    49    18    48   1
    50    18    49   1
    51    19    50   1
    52    19    51   1
    53    20    52   1
@<TRIPOS>SUBSTRUCTURE
     1  B69      1

