@<TRIPOS>MOLECULE
2zcr_ligand_062
    52    53
SMALL
GAST_HUCK
****
This file was generated by PARSER (from files_GN.cpp)

@<TRIPOS>ATOM
      1 CAA        15.1467   56.9552   41.1180 C.3         1 B69      -0.0651
      2 CAP        15.6207   57.0684   39.6488 C.3         1 B69      -0.0541
      3 CAQ        16.3465   55.7980   39.1423 C.3         1 B69      -0.0435
      4 CAS        17.0615   55.9982   37.7698 C.3         1 B69      -0.0191
      5 CAV        18.3064   55.1957   37.6053 C.ar        1 B69      -0.0429
      6 CAI        18.4360   53.9136   38.1899 C.ar        1 B69      -0.0600
      7 CAM        19.6161   53.1640   38.0481 C.ar        1 B69      -0.0616
      8 CAH        19.3843   55.6794   36.8257 C.ar        1 B69      -0.0600
      9 CAL        20.5546   54.9197   36.6509 C.ar        1 B69      -0.0616
     10 CAX        20.6896   53.6654   37.2821 C.ar        1 B69      -0.0283
     11 CAY        21.8866   52.9225   37.1529 C.ar        1 B69      -0.0283
     12 CAO        22.8609   52.9391   38.1750 C.ar        1 B69      -0.0616
     13 CAK        24.0592   52.2132   38.0474 C.ar        1 B69      -0.0600
     14 CAN        22.1517   52.1575   35.9941 C.ar        1 B69      -0.0616
     15 CAJ        23.3569   51.4393   35.8529 C.ar        1 B69      -0.0600
     16 CAW        24.3315   51.4555   36.8812 C.ar        1 B69      -0.0429
     17 CAT        25.6505   50.7665   36.7190 C.3         1 B69      -0.0190
     18 CAR        25.6609   49.5349   35.7590 C.3         1 B69      -0.0402
     19 CAU        27.0103   48.7702   35.7065 C.3         1 B69      -0.0165
     20 CAZ        27.8315   48.6100   37.0368 C.3         1 B69       0.1121
     21 PBA        29.3492   47.9429   36.7838 P.3         1 B69       0.0795
     22 OAC        30.2264   48.2372   37.8957 O.co2       1 B69      -0.5610
     23 OAD        29.3224   46.5086   36.6246 O.co2       1 B69      -0.5610
     24 OAB        30.0008   48.4938   35.6207 O.co2       1 B69      -0.5610
     25 SBB        26.9678   47.6340   38.3148 S.o2        1 B69      -0.1731
     26 OAG        27.9477   47.4559   39.6857 O.co2       1 B69      -0.4830
     27 OAF        26.5791   46.1022   37.6989 O.co2       1 B69      -0.4830
     28 OAE        25.5529   48.4264   38.7989 O.co2       1 B69      -0.4830
     29 H1         14.6515   57.8780   41.4145 H           1 B69       0.0230
     30 H2         15.9920   56.7807   41.7862 H           1 B69       0.0230
     31 H3         14.4395   56.1320   41.2182 H           1 B69       0.0230
     32 H4         16.2965   57.9303   39.5723 H           1 B69       0.0264
     33 H5         14.7420   57.2690   39.0204 H           1 B69       0.0264
     34 H6         15.6064   54.9951   39.0407 H           1 B69       0.0287
     35 H7         17.0642   55.4900   39.9069 H           1 B69       0.0287
     36 H8         17.2725   57.0649   37.6383 H           1 B69       0.0427
     37 H9         16.3625   55.7146   36.9768 H           1 B69       0.0427
     38 H10        17.6724   53.5151   38.7327 H           1 B69       0.0558
     39 H11        19.6951   52.2542   38.5117 H           1 B69       0.0600
     40 H12        19.3202   56.5900   36.3746 H           1 B69       0.0558
     41 H13        21.3166   55.2976   36.0766 H           1 B69       0.0600
     42 H14        22.7200   53.5011   39.0140 H           1 B69       0.0600
     43 H15        24.7574   52.2780   38.7956 H           1 B69       0.0558
     44 H16        21.4829   52.1348   35.2246 H           1 B69       0.0600
     45 H17        23.5361   50.9101   34.9923 H           1 B69       0.0558
     46 H18        26.0201   50.4286   37.6910 H           1 B69       0.0427
     47 H19        26.3734   51.5093   36.3407 H           1 B69       0.0427
     48 H20        25.4560   49.8870   34.7396 H           1 B69       0.0288
     49 H21        24.8488   48.8441   36.0189 H           1 B69       0.0288
     50 H22        27.6344   49.2878   34.9645 H           1 B69       0.0298
     51 H23        26.8036   47.7761   35.2965 H           1 B69       0.0298
     52 H24        27.9988   49.6020   37.4591 H           1 B69       0.0695
@<TRIPOS>BOND
     1     1     2   1
     2     2     3   1
     3     3     4   1
     4     4     5   1
     5     5     6  ar
     6     5     8  ar
     7     6     7  ar
     8     7    10  ar
     9     8     9  ar
    10     9    10  ar
    11    10    11   1
    12    11    12  ar
    13    11    14  ar
    14    12    13  ar
    15    13    16  ar
    16    14    15  ar
    17    15    16  ar
    18    16    17   1
    19    17    18   1
    20    18    19   1
    21    19    20   1
    22    20    21   1
    23    20    25   1
    24    21    22  ar
    25    21    23  ar
    26    21    24  ar
    27    25    26  ar
    28    25    27  ar
    29    25    28  ar
    30     1    29   1
    31     1    30   1
    32     1    31   1
    33     2    32   1
    34     2    33   1
    35     3    34   1
    36     3    35   1
    37     4    36   1
    38     4    37   1
    39     6    38   1
    40     7    39   1
    41     8    40   1
    42     9    41   1
    43    12    42   1
    44    13    43   1
    45    14    44   1
    46    15    45   1
    47    17    46   1
    48    17    47   1
    49    18    48   1
    50    18    49   1
    51    19    50   1
    52    19    51   1
    53    20    52   1
@<TRIPOS>SUBSTRUCTURE
     1  B69      1

