@<TRIPOS>MOLECULE
2zcr_ligand_072
    52    53
SMALL
GAST_HUCK
****
This file was generated by PARSER (from files_GN.cpp)

@<TRIPOS>ATOM
      1 CAA        23.3898   50.1741   33.7912 C.3         1 B69      -0.0651
      2 CAP        24.3923   49.5421   34.7833 C.3         1 B69      -0.0541
      3 CAQ        24.2515   49.9847   36.2662 C.3         1 B69      -0.0435
      4 CAS        22.8936   49.6669   36.9612 C.3         1 B69      -0.0191
      5 CAV        21.8121   50.6588   36.7003 C.ar        1 B69      -0.0429
      6 CAI        20.6230   50.2919   36.0314 C.ar        1 B69      -0.0600
      7 CAM        19.6114   51.2360   35.7888 C.ar        1 B69      -0.0616
      8 CAH        21.9430   51.9940   37.1477 C.ar        1 B69      -0.0600
      9 CAL        20.9245   52.9364   36.9176 C.ar        1 B69      -0.0616
     10 CAX        19.7422   52.5757   36.2297 C.ar        1 B69      -0.0283
     11 CAY        18.7006   53.5235   35.9970 C.ar        1 B69      -0.0283
     12 CAO        18.9891   54.8443   35.5811 C.ar        1 B69      -0.0616
     13 CAK        17.9580   55.7700   35.3463 C.ar        1 B69      -0.0600
     14 CAN        17.3391   53.1615   36.1575 C.ar        1 B69      -0.0616
     15 CAJ        16.3071   54.0758   35.8901 C.ar        1 B69      -0.0600
     16 CAW        16.6038   55.4015   35.5059 C.ar        1 B69      -0.0429
     17 CAT        15.5233   56.3970   35.2734 C.3         1 B69      -0.0190
     18 CAR        14.9643   57.0421   36.5748 C.3         1 B69      -0.0402
     19 CAU        13.8659   56.2157   37.3040 C.3         1 B69      -0.0165
     20 CAZ        13.3594   56.7431   38.6852 C.3         1 B69       0.1121
     21 PBA        12.7306   58.2948   38.6890 P.3         1 B69       0.0795
     22 OAC        13.7200   59.3146   38.4607 O.co2       1 B69      -0.5610
     23 OAD        11.7243   58.4170   37.6665 O.co2       1 B69      -0.5610
     24 OAB        12.0805   58.5938   39.9382 O.co2       1 B69      -0.5610
     25 SBB        14.5778   56.5159   40.0129 S.o2        1 B69      -0.1731
     26 OAG        13.7757   56.5177   41.5015 O.co2       1 B69      -0.4830
     27 OAF        15.7339   57.7505   39.9960 O.co2       1 B69      -0.4830
     28 OAE        15.3655   55.0302   39.8255 O.co2       1 B69      -0.4830
     29 H1         23.6870   49.9378   32.7672 H           1 B69       0.0230
     30 H2         23.3606   51.2588   33.9068 H           1 B69       0.0230
     31 H3         22.3925   49.7674   33.9520 H           1 B69       0.0230
     32 H4         25.4019   49.8032   34.4508 H           1 B69       0.0264
     33 H5         24.3029   48.4538   34.7234 H           1 B69       0.0264
     34 H6         24.4772   51.0510   36.3399 H           1 B69       0.0287
     35 H7         25.0325   49.4621   36.8244 H           1 B69       0.0287
     36 H8         23.0513   49.6440   38.0426 H           1 B69       0.0427
     37 H9         22.5813   48.6592   36.6727 H           1 B69       0.0427
     38 H10        20.4866   49.3312   35.7062 H           1 B69       0.0558
     39 H11        18.7811   50.9349   35.2734 H           1 B69       0.0600
     40 H12        22.7774   52.2876   37.6600 H           1 B69       0.0558
     41 H13        21.0518   53.8872   37.2733 H           1 B69       0.0600
     42 H14        19.9552   55.1465   35.4317 H           1 B69       0.0600
     43 H15        18.2072   56.7176   35.0576 H           1 B69       0.0558
     44 H16        17.0844   52.2244   36.4819 H           1 B69       0.0600
     45 H17        15.3372   53.7618   35.9750 H           1 B69       0.0558
     46 H18        14.7129   55.9459   34.6932 H           1 B69       0.0427
     47 H19        15.9187   57.2106   34.6578 H           1 B69       0.0427
     48 H20        14.5147   57.9963   36.2877 H           1 B69       0.0288
     49 H21        15.7908   57.2604   37.2561 H           1 B69       0.0288
     50 H22        14.2294   55.2009   37.4563 H           1 B69       0.0298
     51 H23        13.0073   56.1349   36.6313 H           1 B69       0.0298
     52 H24        12.5240   56.0932   38.9577 H           1 B69       0.0695
@<TRIPOS>BOND
     1     1     2   1
     2     2     3   1
     3     3     4   1
     4     4     5   1
     5     5     6  ar
     6     5     8  ar
     7     6     7  ar
     8     7    10  ar
     9     8     9  ar
    10     9    10  ar
    11    10    11   1
    12    11    12  ar
    13    11    14  ar
    14    12    13  ar
    15    13    16  ar
    16    14    15  ar
    17    15    16  ar
    18    16    17   1
    19    17    18   1
    20    18    19   1
    21    19    20   1
    22    20    21   1
    23    20    25   1
    24    21    22  ar
    25    21    23  ar
    26    21    24  ar
    27    25    26  ar
    28    25    27  ar
    29    25    28  ar
    30     1    29   1
    31     1    30   1
    32     1    31   1
    33     2    32   1
    34     2    33   1
    35     3    34   1
    36     3    35   1
    37     4    36   1
    38     4    37   1
    39     6    38   1
    40     7    39   1
    41     8    40   1
    42     9    41   1
    43    12    42   1
    44    13    43   1
    45    14    44   1
    46    15    45   1
    47    17    46   1
    48    17    47   1
    49    18    48   1
    50    18    49   1
    51    19    50   1
    52    19    51   1
    53    20    52   1
@<TRIPOS>SUBSTRUCTURE
     1  B69      1

