@<TRIPOS>MOLECULE
2zcr_ligand_078
    52    53
SMALL
GAST_HUCK
****
This file was generated by PARSER (from files_GN.cpp)

@<TRIPOS>ATOM
      1 CAA        25.5237   57.6284   41.3409 C.3         1 B69      -0.0651
      2 CAP        24.1954   57.9029   40.5917 C.3         1 B69      -0.0541
      3 CAQ        22.9239   57.3572   41.3109 C.3         1 B69      -0.0435
      4 CAS        22.1253   56.2362   40.5590 C.3         1 B69      -0.0191
      5 CAV        22.8661   55.0180   40.1142 C.ar        1 B69      -0.0429
      6 CAI        23.8686   54.4207   40.9126 C.ar        1 B69      -0.0600
      7 CAM        24.5748   53.2877   40.4698 C.ar        1 B69      -0.0616
      8 CAH        22.5197   54.3735   38.8974 C.ar        1 B69      -0.0600
      9 CAL        23.2028   53.2171   38.4654 C.ar        1 B69      -0.0616
     10 CAX        24.2490   52.6696   39.2413 C.ar        1 B69      -0.0283
     11 CAY        24.9372   51.5149   38.8052 C.ar        1 B69      -0.0283
     12 CAO        25.4749   51.4396   37.5020 C.ar        1 B69      -0.0616
     13 CAK        26.1735   50.2899   37.0748 C.ar        1 B69      -0.0600
     14 CAN        25.1030   50.4121   39.6740 C.ar        1 B69      -0.0616
     15 CAJ        25.7988   49.2647   39.2506 C.ar        1 B69      -0.0600
     16 CAW        26.3541   49.1904   37.9513 C.ar        1 B69      -0.0429
     17 CAT        27.2005   48.0270   37.5735 C.3         1 B69      -0.0190
     18 CAR        28.6345   48.1607   38.1585 C.3         1 B69      -0.0402
     19 CAU        29.2757   46.7939   38.5514 C.3         1 B69      -0.0165
     20 CAZ        30.6453   46.8263   39.2979 C.3         1 B69       0.1121
     21 PBA        30.6178   47.5213   40.8199 P.3         1 B69       0.0795
     22 OAC        31.8314   47.2359   41.5434 O.co2       1 B69      -0.5610
     23 OAD        30.4697   48.9560   40.8093 O.co2       1 B69      -0.5610
     24 OAB        29.5426   46.9894   41.6137 O.co2       1 B69      -0.5610
     25 SBB        31.9763   47.5241   38.2834 S.o2        1 B69      -0.1731
     26 OAG        31.8707   49.2139   38.2212 O.co2       1 B69      -0.4830
     27 OAF        31.8715   46.9152   36.7057 O.co2       1 B69      -0.4830
     28 OAE        33.4748   47.0912   38.9449 O.co2       1 B69      -0.4830
     29 H1         26.3585   58.0776   40.7960 H           1 B69       0.0230
     30 H2         25.7118   56.5571   41.4334 H           1 B69       0.0230
     31 H3         25.4898   58.0679   42.3384 H           1 B69       0.0230
     32 H4         24.2650   57.4900   39.5851 H           1 B69       0.0264
     33 H5         24.1034   58.9826   40.4850 H           1 B69       0.0264
     34 H6         22.2303   58.1943   41.4562 H           1 B69       0.0287
     35 H7         23.1774   56.9974   42.3127 H           1 B69       0.0287
     36 H8         21.6364   56.7091   39.7048 H           1 B69       0.0427
     37 H9         21.3152   55.8842   41.2018 H           1 B69       0.0427
     38 H10        24.1043   54.8113   41.8280 H           1 B69       0.0558
     39 H11        25.3307   52.9221   41.0494 H           1 B69       0.0600
     40 H12        21.7543   54.7337   38.3214 H           1 B69       0.0558
     41 H13        22.9209   52.7790   37.5867 H           1 B69       0.0600
     42 H14        25.3971   52.2272   36.8606 H           1 B69       0.0600
     43 H15        26.5825   50.2769   36.1365 H           1 B69       0.0558
     44 H16        24.7211   50.4313   40.6244 H           1 B69       0.0600
     45 H17        25.9187   48.4878   39.9068 H           1 B69       0.0558
     46 H18        27.2577   47.9337   36.4840 H           1 B69       0.0427
     47 H19        26.7027   47.1193   37.9296 H           1 B69       0.0427
     48 H20        28.6180   48.7855   39.0469 H           1 B69       0.0288
     49 H21        29.2712   48.6578   37.4259 H           1 B69       0.0288
     50 H22        29.3929   46.2023   37.6343 H           1 B69       0.0298
     51 H23        28.5659   46.2502   39.1793 H           1 B69       0.0298
     52 H24        30.9268   45.7804   39.4541 H           1 B69       0.0695
@<TRIPOS>BOND
     1     1     2   1
     2     2     3   1
     3     3     4   1
     4     4     5   1
     5     5     6  ar
     6     5     8  ar
     7     6     7  ar
     8     7    10  ar
     9     8     9  ar
    10     9    10  ar
    11    10    11   1
    12    11    12  ar
    13    11    14  ar
    14    12    13  ar
    15    13    16  ar
    16    14    15  ar
    17    15    16  ar
    18    16    17   1
    19    17    18   1
    20    18    19   1
    21    19    20   1
    22    20    21   1
    23    20    25   1
    24    21    22  ar
    25    21    23  ar
    26    21    24  ar
    27    25    26  ar
    28    25    27  ar
    29    25    28  ar
    30     1    29   1
    31     1    30   1
    32     1    31   1
    33     2    32   1
    34     2    33   1
    35     3    34   1
    36     3    35   1
    37     4    36   1
    38     4    37   1
    39     6    38   1
    40     7    39   1
    41     8    40   1
    42     9    41   1
    43    12    42   1
    44    13    43   1
    45    14    44   1
    46    15    45   1
    47    17    46   1
    48    17    47   1
    49    18    48   1
    50    18    49   1
    51    19    50   1
    52    19    51   1
    53    20    52   1
@<TRIPOS>SUBSTRUCTURE
     1  B69      1

