@<TRIPOS>MOLECULE
2zcr_ligand_021
    52    53
SMALL
GAST_HUCK
****
This file was generated by PARSER (from files_GN.cpp)

@<TRIPOS>ATOM
      1 CAA         6.7428   60.0268   38.8298 C.3         1 B69      -0.0651
      2 CAP         8.0407   60.7365   38.3849 C.3         1 B69      -0.0541
      3 CAQ         9.2232   59.7570   38.1451 C.3         1 B69      -0.0435
      4 CAS        10.3866   60.4126   37.3554 C.3         1 B69      -0.0191
      5 CAV        11.6018   59.5556   37.3290 C.ar        1 B69      -0.0429
      6 CAI        12.6205   59.7431   38.2898 C.ar        1 B69      -0.0600
      7 CAM        13.7687   58.9293   38.2929 C.ar        1 B69      -0.0616
      8 CAH        11.7646   58.5291   36.3694 C.ar        1 B69      -0.0600
      9 CAL        12.9073   57.7038   36.3851 C.ar        1 B69      -0.0616
     10 CAX        13.9297   57.8885   37.3487 C.ar        1 B69      -0.0283
     11 CAY        15.0958   57.0751   37.3602 C.ar        1 B69      -0.0283
     12 CAO        15.8282   56.8532   36.1748 C.ar        1 B69      -0.0616
     13 CAK        16.9922   56.0588   36.1786 C.ar        1 B69      -0.0600
     14 CAN        15.5763   56.4914   38.5581 C.ar        1 B69      -0.0616
     15 CAJ        16.7428   55.6980   38.5634 C.ar        1 B69      -0.0600
     16 CAW        17.4651   55.4577   37.3707 C.ar        1 B69      -0.0429
     17 CAT        18.7108   54.6307   37.3624 C.3         1 B69      -0.0190
     18 CAR        18.6019   53.2941   38.1404 C.3         1 B69      -0.0402
     19 CAU        19.8212   52.3221   38.0194 C.3         1 B69      -0.0165
     20 CAZ        20.2377   51.6861   36.6438 C.3         1 B69       0.1121
     21 PBA        21.4248   52.4934   35.7904 P.3         1 B69       0.0795
     22 OAC        21.1913   53.8983   35.5583 O.co2       1 B69      -0.5610
     23 OAD        22.7093   52.3643   36.4457 O.co2       1 B69      -0.5610
     24 OAB        21.6151   51.9255   34.4773 O.co2       1 B69      -0.5610
     25 SBB        18.8296   51.1977   35.6035 S.o2        1 B69      -0.1731
     26 OAG        19.3794   50.6724   34.0864 O.co2       1 B69      -0.4830
     27 OAF        17.7534   52.4854   35.3887 O.co2       1 B69      -0.4830
     28 OAE        18.0122   49.9191   36.3538 O.co2       1 B69      -0.4830
     29 H1          5.9708   60.7694   39.0466 H           1 B69       0.0230
     30 H2          6.9166   59.4283   39.7267 H           1 B69       0.0230
     31 H3          6.3823   59.3747   38.0305 H           1 B69       0.0230
     32 H4          8.3297   61.4631   39.1511 H           1 B69       0.0264
     33 H5          7.8186   61.2944   37.4704 H           1 B69       0.0264
     34 H6          8.8733   58.8840   37.5866 H           1 B69       0.0287
     35 H7          9.5823   59.4054   39.1172 H           1 B69       0.0287
     36 H8         10.6377   61.3789   37.7996 H           1 B69       0.0427
     37 H9         10.0455   60.6104   36.3365 H           1 B69       0.0427
     38 H10        12.5374   60.4871   38.9914 H           1 B69       0.0558
     39 H11        14.4945   59.1186   38.9883 H           1 B69       0.0600
     40 H12        11.0446   58.3683   35.6575 H           1 B69       0.0558
     41 H13        12.9760   56.9569   35.6915 H           1 B69       0.0600
     42 H14        15.5441   57.2892   35.2932 H           1 B69       0.0600
     43 H15        17.5034   55.9386   35.3005 H           1 B69       0.0558
     44 H16        15.0769   56.6295   39.4407 H           1 B69       0.0600
     45 H17        17.0644   55.3019   39.4519 H           1 B69       0.0558
     46 H18        19.5239   55.2280   37.7825 H           1 B69       0.0427
     47 H19        18.9736   54.4021   36.3344 H           1 B69       0.0427
     48 H20        17.6870   52.7693   37.8533 H           1 B69       0.0288
     49 H21        18.5026   53.5449   39.2028 H           1 B69       0.0288
     50 H22        19.5773   51.4819   38.6747 H           1 B69       0.0298
     51 H23        20.6860   52.8107   38.4711 H           1 B69       0.0298
     52 H24        20.7091   50.7296   36.8893 H           1 B69       0.0695
@<TRIPOS>BOND
     1     1     2   1
     2     2     3   1
     3     3     4   1
     4     4     5   1
     5     5     6  ar
     6     5     8  ar
     7     6     7  ar
     8     7    10  ar
     9     8     9  ar
    10     9    10  ar
    11    10    11   1
    12    11    12  ar
    13    11    14  ar
    14    12    13  ar
    15    13    16  ar
    16    14    15  ar
    17    15    16  ar
    18    16    17   1
    19    17    18   1
    20    18    19   1
    21    19    20   1
    22    20    21   1
    23    20    25   1
    24    21    22  ar
    25    21    23  ar
    26    21    24  ar
    27    25    26  ar
    28    25    27  ar
    29    25    28  ar
    30     1    29   1
    31     1    30   1
    32     1    31   1
    33     2    32   1
    34     2    33   1
    35     3    34   1
    36     3    35   1
    37     4    36   1
    38     4    37   1
    39     6    38   1
    40     7    39   1
    41     8    40   1
    42     9    41   1
    43    12    42   1
    44    13    43   1
    45    14    44   1
    46    15    45   1
    47    17    46   1
    48    17    47   1
    49    18    48   1
    50    18    49   1
    51    19    50   1
    52    19    51   1
    53    20    52   1
@<TRIPOS>SUBSTRUCTURE
     1  B69      1

