@<TRIPOS>MOLECULE
2zcr_ligand_076
    52    53
SMALL
GAST_HUCK
****
This file was generated by PARSER (from files_GN.cpp)

@<TRIPOS>ATOM
      1 CAA        15.2970   52.8977   39.7631 C.3         1 B69      -0.0651
      2 CAP        16.4255   53.7203   39.0911 C.3         1 B69      -0.0541
      3 CAQ        17.6840   52.8738   38.7717 C.3         1 B69      -0.0435
      4 CAS        18.8075   53.6840   38.0591 C.3         1 B69      -0.0191
      5 CAV        20.1131   52.9660   37.9474 C.ar        1 B69      -0.0429
      6 CAI        21.3376   53.6490   38.1399 C.ar        1 B69      -0.0600
      7 CAM        22.5687   52.9721   38.0644 C.ar        1 B69      -0.0616
      8 CAH        20.1693   51.5881   37.6284 C.ar        1 B69      -0.0600
      9 CAL        21.3954   50.8984   37.5907 C.ar        1 B69      -0.0616
     10 CAX        22.6119   51.5795   37.8130 C.ar        1 B69      -0.0283
     11 CAY        23.8414   50.8789   37.8010 C.ar        1 B69      -0.0283
     12 CAO        24.0487   49.7887   38.6708 C.ar        1 B69      -0.0616
     13 CAK        25.2808   49.1068   38.6866 C.ar        1 B69      -0.0600
     14 CAN        24.8928   51.2642   36.9376 C.ar        1 B69      -0.0616
     15 CAJ        26.1084   50.5547   36.9250 C.ar        1 B69      -0.0600
     16 CAW        26.3211   49.4600   37.7971 C.ar        1 B69      -0.0429
     17 CAT        27.6367   48.7487   37.8255 C.3         1 B69      -0.0190
     18 CAR        27.5951   47.2137   38.0730 C.3         1 B69      -0.0402
     19 CAU        26.8667   46.3487   36.9907 C.3         1 B69      -0.0165
     20 CAZ        27.8190   45.5914   36.0092 C.3         1 B69       0.1121
     21 PBA        27.0687   45.1217   34.5880 P.3         1 B69       0.0795
     22 OAC        26.0880   44.0874   34.7971 O.co2       1 B69      -0.5610
     23 OAD        26.3857   46.2310   33.9758 O.co2       1 B69      -0.5610
     24 OAB        28.0185   44.6488   33.6129 O.co2       1 B69      -0.5610
     25 SBB        28.5885   44.1323   36.7938 S.o2        1 B69      -0.1731
     26 OAG        27.4441   42.9083   37.0191 O.co2       1 B69      -0.4830
     27 OAF        29.2443   44.5173   38.3039 O.co2       1 B69      -0.4830
     28 OAE        29.8343   43.5531   35.8064 O.co2       1 B69      -0.4830
     29 H1         14.4819   53.5611   40.0598 H           1 B69       0.0230
     30 H2         15.6746   52.3879   40.6513 H           1 B69       0.0230
     31 H3         14.9051   52.1554   39.0644 H           1 B69       0.0230
     32 H4         16.7063   54.5414   39.7588 H           1 B69       0.0264
     33 H5         16.0269   54.1555   38.1692 H           1 B69       0.0264
     34 H6         17.3859   52.0463   38.1256 H           1 B69       0.0287
     35 H7         18.0687   52.4560   39.7058 H           1 B69       0.0287
     36 H8         18.9441   54.6227   38.6017 H           1 B69       0.0427
     37 H9         18.4742   53.9377   37.0519 H           1 B69       0.0427
     38 H10        21.3437   54.6570   38.3391 H           1 B69       0.0558
     39 H11        23.4329   53.4982   38.2185 H           1 B69       0.0600
     40 H12        19.3114   51.0622   37.4438 H           1 B69       0.0558
     41 H13        21.3886   49.8954   37.3839 H           1 B69       0.0600
     42 H14        23.3199   49.4879   39.3248 H           1 B69       0.0600
     43 H15        25.3957   48.3415   39.3554 H           1 B69       0.0558
     44 H16        24.7776   52.0577   36.3054 H           1 B69       0.0600
     45 H17        26.8465   50.8634   36.2861 H           1 B69       0.0558
     46 H18        28.2187   49.1977   38.6316 H           1 B69       0.0427
     47 H19        28.1941   48.9304   36.9030 H           1 B69       0.0427
     48 H20        27.1300   47.0201   39.0404 H           1 B69       0.0288
     49 H21        28.6309   46.8907   38.1848 H           1 B69       0.0288
     50 H22        26.1904   47.0022   36.4369 H           1 B69       0.0298
     51 H23        26.2272   45.6152   37.4894 H           1 B69       0.0298
     52 H24        28.6274   46.2690   35.7266 H           1 B69       0.0695
@<TRIPOS>BOND
     1     1     2   1
     2     2     3   1
     3     3     4   1
     4     4     5   1
     5     5     6  ar
     6     5     8  ar
     7     6     7  ar
     8     7    10  ar
     9     8     9  ar
    10     9    10  ar
    11    10    11   1
    12    11    12  ar
    13    11    14  ar
    14    12    13  ar
    15    13    16  ar
    16    14    15  ar
    17    15    16  ar
    18    16    17   1
    19    17    18   1
    20    18    19   1
    21    19    20   1
    22    20    21   1
    23    20    25   1
    24    21    22  ar
    25    21    23  ar
    26    21    24  ar
    27    25    26  ar
    28    25    27  ar
    29    25    28  ar
    30     1    29   1
    31     1    30   1
    32     1    31   1
    33     2    32   1
    34     2    33   1
    35     3    34   1
    36     3    35   1
    37     4    36   1
    38     4    37   1
    39     6    38   1
    40     7    39   1
    41     8    40   1
    42     9    41   1
    43    12    42   1
    44    13    43   1
    45    14    44   1
    46    15    45   1
    47    17    46   1
    48    17    47   1
    49    18    48   1
    50    18    49   1
    51    19    50   1
    52    19    51   1
    53    20    52   1
@<TRIPOS>SUBSTRUCTURE
     1  B69      1

