@<TRIPOS>MOLECULE
2zcr_ligand_058
    52    53
SMALL
GAST_HUCK
****
This file was generated by PARSER (from files_GN.cpp)

@<TRIPOS>ATOM
      1 CAA        19.7704   51.6965   37.1257 C.3         1 B69      -0.0651
      2 CAP        21.1543   51.0736   37.4089 C.3         1 B69      -0.0541
      3 CAQ        21.7358   50.2926   36.1946 C.3         1 B69      -0.0435
      4 CAS        22.9035   49.3060   36.5042 C.3         1 B69      -0.0191
      5 CAV        23.7291   49.6148   37.7039 C.ar        1 B69      -0.0429
      6 CAI        23.9961   48.6253   38.6781 C.ar        1 B69      -0.0600
      7 CAM        24.7525   48.9227   39.8266 C.ar        1 B69      -0.0616
      8 CAH        24.2747   50.9066   37.8939 C.ar        1 B69      -0.0600
      9 CAL        25.0045   51.2173   39.0550 C.ar        1 B69      -0.0616
     10 CAX        25.2541   50.2268   40.0289 C.ar        1 B69      -0.0283
     11 CAY        26.0486   50.5228   41.1618 C.ar        1 B69      -0.0283
     12 CAO        25.5231   51.2470   42.2517 C.ar        1 B69      -0.0616
     13 CAK        26.3369   51.5668   43.3545 C.ar        1 B69      -0.0600
     14 CAN        27.3971   50.1036   41.2032 C.ar        1 B69      -0.0616
     15 CAJ        28.2111   50.4206   42.3081 C.ar        1 B69      -0.0600
     16 CAW        27.6919   51.1505   43.4026 C.ar        1 B69      -0.0429
     17 CAT        28.5258   51.3889   44.6173 C.3         1 B69      -0.0190
     18 CAR        29.9411   51.9867   44.3700 C.3         1 B69      -0.0402
     19 CAU        30.0417   53.4018   43.7251 C.3         1 B69      -0.0165
     20 CAZ        29.1611   54.5670   44.2925 C.3         1 B69       0.1121
     21 PBA        29.2627   55.9411   43.3362 P.3         1 B69       0.0795
     22 OAC        28.9199   55.6365   41.9723 O.co2       1 B69      -0.5610
     23 OAD        28.3345   56.9636   43.7601 O.co2       1 B69      -0.5610
     24 OAB        30.5847   56.5166   43.3299 O.co2       1 B69      -0.5610
     25 SBB        29.4188   55.0108   46.0498 S.o2        1 B69      -0.1731
     26 OAG        30.1121   56.5468   46.2231 O.co2       1 B69      -0.4830
     27 OAF        30.4111   53.9245   46.8820 O.co2       1 B69      -0.4830
     28 OAE        27.9000   55.0304   46.7922 O.co2       1 B69      -0.4830
     29 H1         19.4746   52.3342   37.9607 H           1 B69       0.0230
     30 H2         19.0226   50.9092   37.0041 H           1 B69       0.0230
     31 H3         19.8055   52.3042   36.2190 H           1 B69       0.0230
     32 H4         21.0670   50.4101   38.2685 H           1 B69       0.0264
     33 H5         21.8361   51.8834   37.6795 H           1 B69       0.0264
     34 H6         22.0778   51.0238   35.4581 H           1 B69       0.0287
     35 H7         20.9302   49.7205   35.7211 H           1 B69       0.0287
     36 H8         23.5709   49.2780   35.6393 H           1 B69       0.0427
     37 H9         22.4754   48.3039   36.5919 H           1 B69       0.0427
     38 H10        23.6620   47.6678   38.5518 H           1 B69       0.0558
     39 H11        24.9378   48.1813   40.5101 H           1 B69       0.0600
     40 H12        24.1340   51.6360   37.1915 H           1 B69       0.0558
     41 H13        25.3716   52.1660   39.1777 H           1 B69       0.0600
     42 H14        24.5418   51.5351   42.2527 H           1 B69       0.0600
     43 H15        25.9216   52.0759   44.1387 H           1 B69       0.0558
     44 H16        27.7962   49.5738   40.4229 H           1 B69       0.0600
     45 H17        29.1828   50.0979   42.3244 H           1 B69       0.0558
     46 H18        28.6532   50.4169   45.1094 H           1 B69       0.0427
     47 H19        28.0033   52.0214   45.3424 H           1 B69       0.0427
     48 H20        30.4901   51.2957   43.7255 H           1 B69       0.0288
     49 H21        30.4698   51.9899   45.3255 H           1 B69       0.0288
     50 H22        29.7925   53.2648   42.6676 H           1 B69       0.0298
     51 H23        31.0923   53.7003   43.7643 H           1 B69       0.0298
     52 H24        28.1205   54.2463   44.2160 H           1 B69       0.0695
@<TRIPOS>BOND
     1     1     2   1
     2     2     3   1
     3     3     4   1
     4     4     5   1
     5     5     6  ar
     6     5     8  ar
     7     6     7  ar
     8     7    10  ar
     9     8     9  ar
    10     9    10  ar
    11    10    11   1
    12    11    12  ar
    13    11    14  ar
    14    12    13  ar
    15    13    16  ar
    16    14    15  ar
    17    15    16  ar
    18    16    17   1
    19    17    18   1
    20    18    19   1
    21    19    20   1
    22    20    21   1
    23    20    25   1
    24    21    22  ar
    25    21    23  ar
    26    21    24  ar
    27    25    26  ar
    28    25    27  ar
    29    25    28  ar
    30     1    29   1
    31     1    30   1
    32     1    31   1
    33     2    32   1
    34     2    33   1
    35     3    34   1
    36     3    35   1
    37     4    36   1
    38     4    37   1
    39     6    38   1
    40     7    39   1
    41     8    40   1
    42     9    41   1
    43    12    42   1
    44    13    43   1
    45    14    44   1
    46    15    45   1
    47    17    46   1
    48    17    47   1
    49    18    48   1
    50    18    49   1
    51    19    50   1
    52    19    51   1
    53    20    52   1
@<TRIPOS>SUBSTRUCTURE
     1  B69      1

