@<TRIPOS>MOLECULE
2zcr_ligand_087
    52    53
SMALL
GAST_HUCK
****
This file was generated by PARSER (from files_GN.cpp)

@<TRIPOS>ATOM
      1 CAA        18.6684   55.7581   37.0720 C.3         1 B69      -0.0651
      2 CAP        18.5772   54.5707   36.0903 C.3         1 B69      -0.0541
      3 CAQ        19.6342   53.4653   36.3454 C.3         1 B69      -0.0435
      4 CAS        21.0699   53.8323   35.8846 C.3         1 B69      -0.0191
      5 CAV        22.0886   52.8424   36.3425 C.ar        1 B69      -0.0429
      6 CAI        22.5141   52.8437   37.6868 C.ar        1 B69      -0.0600
      7 CAM        23.5007   51.9363   38.1277 C.ar        1 B69      -0.0616
      8 CAH        22.6538   51.9053   35.4537 C.ar        1 B69      -0.0600
      9 CAL        23.6361   50.9911   35.8979 C.ar        1 B69      -0.0616
     10 CAX        24.0666   51.0015   37.2421 C.ar        1 B69      -0.0283
     11 CAY        25.0602   50.0886   37.7029 C.ar        1 B69      -0.0283
     12 CAO        26.3217   50.0198   37.0826 C.ar        1 B69      -0.0616
     13 CAK        27.3185   49.1588   37.5811 C.ar        1 B69      -0.0600
     14 CAN        24.7956   49.2398   38.7992 C.ar        1 B69      -0.0616
     15 CAJ        25.7830   48.3484   39.2693 C.ar        1 B69      -0.0600
     16 CAW        27.0496   48.2784   38.6566 C.ar        1 B69      -0.0429
     17 CAT        28.0980   47.3606   39.1828 C.3         1 B69      -0.0190
     18 CAR        28.8215   46.5062   38.1211 C.3         1 B69      -0.0402
     19 CAU        29.7546   45.3841   38.6407 C.3         1 B69      -0.0165
     20 CAZ        31.0863   45.7302   39.3821 C.3         1 B69       0.1121
     21 PBA        30.9691   46.1411   40.9955 P.3         1 B69       0.0795
     22 OAC        29.9798   45.3632   41.6899 O.co2       1 B69      -0.5610
     23 OAD        32.2152   45.8897   41.6646 O.co2       1 B69      -0.5610
     24 OAB        30.6786   47.5311   41.2688 O.co2       1 B69      -0.5610
     25 SBB        32.1416   46.8972   38.4813 S.o2        1 B69      -0.1731
     26 OAG        31.8416   48.4932   38.9488 O.co2       1 B69      -0.4830
     27 OAF        31.8687   46.7716   36.8189 O.co2       1 B69      -0.4830
     28 OAE        33.7572   46.5325   38.7888 O.co2       1 B69      -0.4830
     29 H1         17.8746   56.4758   36.8755 H           1 B69       0.0230
     30 H2         19.6188   56.2747   36.9756 H           1 B69       0.0230
     31 H3         18.5656   55.4097   38.0961 H           1 B69       0.0230
     32 H4         18.6598   54.9405   35.0700 H           1 B69       0.0264
     33 H5         17.5833   54.1362   36.1911 H           1 B69       0.0264
     34 H6         19.3243   52.5702   35.8043 H           1 B69       0.0287
     35 H7         19.6268   53.2202   37.4077 H           1 B69       0.0287
     36 H8         21.3575   54.8137   36.2619 H           1 B69       0.0427
     37 H9         21.0711   53.9078   34.7949 H           1 B69       0.0427
     38 H10        22.1385   53.5257   38.3489 H           1 B69       0.0558
     39 H11        23.7974   51.9780   39.1041 H           1 B69       0.0600
     40 H12        22.3633   51.8741   34.4734 H           1 B69       0.0558
     41 H13        24.0171   50.3173   35.2307 H           1 B69       0.0600
     42 H14        26.5570   50.6377   36.3010 H           1 B69       0.0600
     43 H15        28.2307   49.1626   37.1307 H           1 B69       0.0558
     44 H16        23.8865   49.2652   39.2685 H           1 B69       0.0600
     45 H17        25.5552   47.7605   40.0754 H           1 B69       0.0558
     46 H18        27.6774   46.6841   39.9216 H           1 B69       0.0427
     47 H19        28.8196   47.9782   39.6915 H           1 B69       0.0427
     48 H20        29.3857   47.1534   37.4670 H           1 B69       0.0288
     49 H21        28.0644   46.0510   37.4895 H           1 B69       0.0288
     50 H22        30.0279   44.7909   37.7669 H           1 B69       0.0298
     51 H23        29.1547   44.7132   39.2513 H           1 B69       0.0298
     52 H24        31.6477   44.7937   39.3914 H           1 B69       0.0695
@<TRIPOS>BOND
     1     1     2   1
     2     2     3   1
     3     3     4   1
     4     4     5   1
     5     5     6  ar
     6     5     8  ar
     7     6     7  ar
     8     7    10  ar
     9     8     9  ar
    10     9    10  ar
    11    10    11   1
    12    11    12  ar
    13    11    14  ar
    14    12    13  ar
    15    13    16  ar
    16    14    15  ar
    17    15    16  ar
    18    16    17   1
    19    17    18   1
    20    18    19   1
    21    19    20   1
    22    20    21   1
    23    20    25   1
    24    21    22  ar
    25    21    23  ar
    26    21    24  ar
    27    25    26  ar
    28    25    27  ar
    29    25    28  ar
    30     1    29   1
    31     1    30   1
    32     1    31   1
    33     2    32   1
    34     2    33   1
    35     3    34   1
    36     3    35   1
    37     4    36   1
    38     4    37   1
    39     6    38   1
    40     7    39   1
    41     8    40   1
    42     9    41   1
    43    12    42   1
    44    13    43   1
    45    14    44   1
    46    15    45   1
    47    17    46   1
    48    17    47   1
    49    18    48   1
    50    18    49   1
    51    19    50   1
    52    19    51   1
    53    20    52   1
@<TRIPOS>SUBSTRUCTURE
     1  B69      1

