@<TRIPOS>MOLECULE
2zcr_ligand_006
    52    53
SMALL
GAST_HUCK
****
This file was generated by PARSER (from files_GN.cpp)

@<TRIPOS>ATOM
      1 CAA        11.8093   58.5883   38.5076 C.3         1 B69      -0.0651
      2 CAP        12.9045   57.5677   38.8944 C.3         1 B69      -0.0541
      3 CAQ        13.5116   57.8336   40.3068 C.3         1 B69      -0.0435
      4 CAS        14.2270   56.6149   40.9486 C.3         1 B69      -0.0191
      5 CAV        15.0098   55.7677   40.0137 C.ar        1 B69      -0.0429
      6 CAI        16.1133   56.2963   39.3021 C.ar        1 B69      -0.0600
      7 CAM        16.8631   55.4849   38.4308 C.ar        1 B69      -0.0616
      8 CAH        14.7002   54.3967   39.8509 C.ar        1 B69      -0.0600
      9 CAL        15.4280   53.5897   38.9679 C.ar        1 B69      -0.0616
     10 CAX        16.5239   54.1226   38.2581 C.ar        1 B69      -0.0283
     11 CAY        17.2825   53.2902   37.4018 C.ar        1 B69      -0.0283
     12 CAO        16.8433   53.0204   36.0829 C.ar        1 B69      -0.0616
     13 CAK        17.6251   52.2361   35.2186 C.ar        1 B69      -0.0600
     14 CAN        18.5031   52.7327   37.8438 C.ar        1 B69      -0.0616
     15 CAJ        19.2736   51.9350   36.9825 C.ar        1 B69      -0.0600
     16 CAW        18.8606   51.7000   35.6505 C.ar        1 B69      -0.0429
     17 CAT        19.7410   50.9504   34.7215 C.3         1 B69      -0.0190
     18 CAR        20.2009   49.5820   35.2949 C.3         1 B69      -0.0402
     19 CAU        21.1718   48.8016   34.3558 C.3         1 B69      -0.0165
     20 CAZ        22.6972   49.0428   34.6804 C.3         1 B69       0.1121
     21 PBA        23.6852   49.3368   33.3631 P.3         1 B69       0.0795
     22 OAC        22.9570   49.9170   32.2588 O.co2       1 B69      -0.5610
     23 OAD        24.6584   50.3373   33.7385 O.co2       1 B69      -0.5610
     24 OAB        24.4169   48.1829   32.8824 O.co2       1 B69      -0.5610
     25 SBB        23.3736   47.6834   35.6865 S.o2        1 B69      -0.1731
     26 OAG        22.9829   46.1958   34.9685 O.co2       1 B69      -0.4830
     27 OAF        22.7123   47.7441   37.2374 O.co2       1 B69      -0.4830
     28 OAE        25.0576   47.8109   35.7982 O.co2       1 B69      -0.4830
     29 H1         11.4720   58.4062   37.4786 H           1 B69       0.0230
     30 H2         12.1930   59.6118   38.5741 H           1 B69       0.0230
     31 H3         10.9459   58.4812   39.1784 H           1 B69       0.0230
     32 H4         13.7005   57.6256   38.1410 H           1 B69       0.0264
     33 H5         12.4695   56.5657   38.8446 H           1 B69       0.0264
     34 H6         12.7086   58.1466   40.9800 H           1 B69       0.0287
     35 H7         14.2101   58.6696   40.2246 H           1 B69       0.0287
     36 H8         13.4614   56.0225   41.4535 H           1 B69       0.0427
     37 H9         14.8967   56.9853   41.7252 H           1 B69       0.0427
     38 H10        16.3683   57.2820   39.4029 H           1 B69       0.0558
     39 H11        17.6542   55.8919   37.9231 H           1 B69       0.0600
     40 H12        13.9314   53.9781   40.3756 H           1 B69       0.0558
     41 H13        15.1778   52.6039   38.8666 H           1 B69       0.0600
     42 H14        15.9607   53.4100   35.7386 H           1 B69       0.0600
     43 H15        17.3033   52.0823   34.2598 H           1 B69       0.0558
     44 H16        18.8288   52.9042   38.8021 H           1 B69       0.0600
     45 H17        20.1599   51.5560   37.3330 H           1 B69       0.0558
     46 H18        20.6054   51.5721   34.4932 H           1 B69       0.0427
     47 H19        19.2396   50.7666   33.7680 H           1 B69       0.0427
     48 H20        19.3142   48.9629   35.4628 H           1 B69       0.0288
     49 H21        20.6920   49.7215   36.2611 H           1 B69       0.0288
     50 H22        20.9332   49.0684   33.3212 H           1 B69       0.0298
     51 H23        20.9448   47.7328   34.4420 H           1 B69       0.0298
     52 H24        22.7889   49.9305   35.3152 H           1 B69       0.0695
@<TRIPOS>BOND
     1     1     2   1
     2     2     3   1
     3     3     4   1
     4     4     5   1
     5     5     6  ar
     6     5     8  ar
     7     6     7  ar
     8     7    10  ar
     9     8     9  ar
    10     9    10  ar
    11    10    11   1
    12    11    12  ar
    13    11    14  ar
    14    12    13  ar
    15    13    16  ar
    16    14    15  ar
    17    15    16  ar
    18    16    17   1
    19    17    18   1
    20    18    19   1
    21    19    20   1
    22    20    21   1
    23    20    25   1
    24    21    22  ar
    25    21    23  ar
    26    21    24  ar
    27    25    26  ar
    28    25    27  ar
    29    25    28  ar
    30     1    29   1
    31     1    30   1
    32     1    31   1
    33     2    32   1
    34     2    33   1
    35     3    34   1
    36     3    35   1
    37     4    36   1
    38     4    37   1
    39     6    38   1
    40     7    39   1
    41     8    40   1
    42     9    41   1
    43    12    42   1
    44    13    43   1
    45    14    44   1
    46    15    45   1
    47    17    46   1
    48    17    47   1
    49    18    48   1
    50    18    49   1
    51    19    50   1
    52    19    51   1
    53    20    52   1
@<TRIPOS>SUBSTRUCTURE
     1  B69      1

