@<TRIPOS>MOLECULE
2zcr_ligand_093
    52    53
SMALL
GAST_HUCK
****
This file was generated by PARSER (from files_GN.cpp)

@<TRIPOS>ATOM
      1 CAA        30.6265   51.3713   42.4878 C.3         1 B69      -0.0651
      2 CAP        31.6365   50.3468   41.9082 C.3         1 B69      -0.0541
      3 CAQ        31.7114   48.9997   42.6799 C.3         1 B69      -0.0435
      4 CAS        30.4104   48.1458   42.7183 C.3         1 B69      -0.0191
      5 CAV        29.8542   47.8334   41.3725 C.ar        1 B69      -0.0429
      6 CAI        30.5114   46.9173   40.5184 C.ar        1 B69      -0.0600
      7 CAM        30.0134   46.6633   39.2252 C.ar        1 B69      -0.0616
      8 CAH        28.6903   48.4871   40.9018 C.ar        1 B69      -0.0600
      9 CAL        28.2130   48.2610   39.6006 C.ar        1 B69      -0.0616
     10 CAX        28.8736   47.3459   38.7446 C.ar        1 B69      -0.0283
     11 CAY        28.4403   47.1746   37.4069 C.ar        1 B69      -0.0283
     12 CAO        28.4149   48.2765   36.5267 C.ar        1 B69      -0.0616
     13 CAK        28.0191   48.1167   35.1852 C.ar        1 B69      -0.0600
     14 CAN        28.0457   45.9068   36.9262 C.ar        1 B69      -0.0616
     15 CAJ        27.6260   45.7518   35.5890 C.ar        1 B69      -0.0600
     16 CAW        27.6091   46.8521   34.7028 C.ar        1 B69      -0.0429
     17 CAT        27.1793   46.6957   33.2888 C.3         1 B69      -0.0190
     18 CAR        25.8524   47.4257   32.9395 C.3         1 B69      -0.0402
     19 CAU        24.5860   46.8955   33.6763 C.3         1 B69      -0.0165
     20 CAZ        24.2581   47.5062   35.0843 C.3         1 B69       0.1121
     21 PBA        23.2433   46.5123   35.9745 P.3         1 B69       0.0795
     22 OAC        22.7598   47.0964   37.2013 O.co2       1 B69      -0.5610
     23 OAD        22.1045   46.0756   35.2066 O.co2       1 B69      -0.5610
     24 OAB        23.9648   45.3257   36.3677 O.co2       1 B69      -0.5610
     25 SBB        23.5536   49.1798   34.9596 S.o2        1 B69      -0.1731
     26 OAG        24.6820   50.2734   34.3379 O.co2       1 B69      -0.4830
     27 OAF        23.1036   49.7607   36.4819 O.co2       1 B69      -0.4830
     28 OAE        22.1901   49.1612   33.9601 O.co2       1 B69      -0.4830
     29 H1         30.6765   52.3012   41.9222 H           1 B69       0.0230
     30 H2         30.8640   51.5835   43.5285 H           1 B69       0.0230
     31 H3         29.6048   50.9881   42.4279 H           1 B69       0.0230
     32 H4         32.6304   50.8078   41.9227 H           1 B69       0.0264
     33 H5         31.3798   50.1576   40.8612 H           1 B69       0.0264
     34 H6         32.0173   49.2064   43.7102 H           1 B69       0.0287
     35 H7         32.5116   48.4040   42.2305 H           1 B69       0.0287
     36 H8         29.6758   48.6732   43.3310 H           1 B69       0.0427
     37 H9         30.6187   47.2082   43.2407 H           1 B69       0.0427
     38 H10        31.3557   46.4277   40.8337 H           1 B69       0.0558
     39 H11        30.5146   46.0048   38.6209 H           1 B69       0.0600
     40 H12        28.1950   49.1538   41.4988 H           1 B69       0.0558
     41 H13        27.3776   48.7635   39.2846 H           1 B69       0.0600
     42 H14        28.7073   49.2023   36.8482 H           1 B69       0.0600
     43 H15        28.0290   48.9324   34.5656 H           1 B69       0.0558
     44 H16        28.0462   45.0937   37.5478 H           1 B69       0.0600
     45 H17        27.3365   44.8218   35.2721 H           1 B69       0.0558
     46 H18        27.0610   45.6415   33.0388 H           1 B69       0.0427
     47 H19        27.9713   47.0853   32.6429 H           1 B69       0.0427
     48 H20        25.6923   47.2949   31.8644 H           1 B69       0.0288
     49 H21        25.9638   48.4974   33.0988 H           1 B69       0.0288
     50 H22        24.6955   45.8085   33.7500 H           1 B69       0.0298
     51 H23        23.7229   47.0621   33.0229 H           1 B69       0.0298
     52 H24        25.1750   47.6019   35.6610 H           1 B69       0.0695
@<TRIPOS>BOND
     1     1     2   1
     2     2     3   1
     3     3     4   1
     4     4     5   1
     5     5     6  ar
     6     5     8  ar
     7     6     7  ar
     8     7    10  ar
     9     8     9  ar
    10     9    10  ar
    11    10    11   1
    12    11    12  ar
    13    11    14  ar
    14    12    13  ar
    15    13    16  ar
    16    14    15  ar
    17    15    16  ar
    18    16    17   1
    19    17    18   1
    20    18    19   1
    21    19    20   1
    22    20    21   1
    23    20    25   1
    24    21    22  ar
    25    21    23  ar
    26    21    24  ar
    27    25    26  ar
    28    25    27  ar
    29    25    28  ar
    30     1    29   1
    31     1    30   1
    32     1    31   1
    33     2    32   1
    34     2    33   1
    35     3    34   1
    36     3    35   1
    37     4    36   1
    38     4    37   1
    39     6    38   1
    40     7    39   1
    41     8    40   1
    42     9    41   1
    43    12    42   1
    44    13    43   1
    45    14    44   1
    46    15    45   1
    47    17    46   1
    48    17    47   1
    49    18    48   1
    50    18    49   1
    51    19    50   1
    52    19    51   1
    53    20    52   1
@<TRIPOS>SUBSTRUCTURE
     1  B69      1

