@<TRIPOS>MOLECULE
2zcr_ligand_061
    52    53
SMALL
GAST_HUCK
****
This file was generated by PARSER (from files_GN.cpp)

@<TRIPOS>ATOM
      1 CAA        15.5355   54.0946   35.9898 C.3         1 B69      -0.0651
      2 CAP        15.1319   55.5662   35.7330 C.3         1 B69      -0.0541
      3 CAQ        16.2890   56.5924   35.5838 C.3         1 B69      -0.0435
      4 CAS        17.2423   56.7722   36.8017 C.3         1 B69      -0.0191
      5 CAV        18.2624   55.7011   36.9550 C.ar        1 B69      -0.0429
      6 CAI        19.2341   55.4789   35.9504 C.ar        1 B69      -0.0600
      7 CAM        20.1915   54.4599   36.0846 C.ar        1 B69      -0.0616
      8 CAH        18.3093   54.9075   38.1261 C.ar        1 B69      -0.0600
      9 CAL        19.2592   53.8802   38.2594 C.ar        1 B69      -0.0616
     10 CAX        20.2052   53.6457   37.2395 C.ar        1 B69      -0.0283
     11 CAY        21.1670   52.6226   37.3830 C.ar        1 B69      -0.0283
     12 CAO        20.8223   51.2819   37.1034 C.ar        1 B69      -0.0616
     13 CAK        21.7749   50.2606   37.2559 C.ar        1 B69      -0.0600
     14 CAN        22.4792   52.9208   37.8066 C.ar        1 B69      -0.0616
     15 CAJ        23.4267   51.8936   37.9598 C.ar        1 B69      -0.0600
     16 CAW        23.0854   50.5419   37.7089 C.ar        1 B69      -0.0429
     17 CAT        24.0864   49.4481   37.8777 C.3         1 B69      -0.0190
     18 CAR        24.7946   49.4585   39.2657 C.3         1 B69      -0.0402
     19 CAU        25.7050   48.2212   39.5674 C.3         1 B69      -0.0165
     20 CAZ        27.2524   48.4055   39.4104 C.3         1 B69       0.1121
     21 PBA        27.7852   48.6552   37.8455 P.3         1 B69       0.0795
     22 OAC        27.5588   47.5093   36.9939 O.co2       1 B69      -0.5610
     23 OAD        27.1250   49.7965   37.2617 O.co2       1 B69      -0.5610
     24 OAB        29.1891   48.9724   37.7750 O.co2       1 B69      -0.5610
     25 SBB        28.1220   46.9786   40.1450 S.o2        1 B69      -0.1731
     26 OAG        27.7536   46.8799   41.7880 O.co2       1 B69      -0.4830
     27 OAF        29.8023   47.1381   39.9872 O.co2       1 B69      -0.4830
     28 OAE        27.6310   45.5536   39.3749 O.co2       1 B69      -0.4830
     29 H1         14.6839   53.4422   35.7833 H           1 B69       0.0230
     30 H2         15.8313   53.9529   37.0288 H           1 B69       0.0230
     31 H3         16.3607   53.7977   35.3411 H           1 B69       0.0230
     32 H4         14.4637   55.8857   36.5381 H           1 B69       0.0264
     33 H5         14.5530   55.5920   34.8042 H           1 B69       0.0264
     34 H6         15.8194   57.5633   35.4034 H           1 B69       0.0287
     35 H7         16.8670   56.3532   34.6860 H           1 B69       0.0287
     36 H8         16.6352   56.8742   37.7058 H           1 B69       0.0427
     37 H9         17.7814   57.7154   36.6871 H           1 B69       0.0427
     38 H10        19.2471   56.0598   35.1054 H           1 B69       0.0558
     39 H11        20.8743   54.3111   35.3339 H           1 B69       0.0600
     40 H12        17.6486   55.0697   38.8902 H           1 B69       0.0558
     41 H13        19.2548   53.3089   39.1094 H           1 B69       0.0600
     42 H14        19.8810   51.0483   36.7745 H           1 B69       0.0600
     43 H15        21.5000   49.3051   37.0217 H           1 B69       0.0558
     44 H16        22.7519   53.8887   38.0153 H           1 B69       0.0600
     45 H17        24.3713   52.1400   38.2678 H           1 B69       0.0558
     46 H18        24.8244   49.5391   37.0849 H           1 B69       0.0427
     47 H19        23.6033   48.4717   37.7592 H           1 B69       0.0427
     48 H20        24.0110   49.5002   40.0300 H           1 B69       0.0288
     49 H21        25.3888   50.3669   39.3756 H           1 B69       0.0288
     50 H22        25.3711   47.3616   38.9782 H           1 B69       0.0298
     51 H23        25.5186   47.9565   40.6139 H           1 B69       0.0298
     52 H24        27.5582   49.2717   40.0026 H           1 B69       0.0695
@<TRIPOS>BOND
     1     1     2   1
     2     2     3   1
     3     3     4   1
     4     4     5   1
     5     5     6  ar
     6     5     8  ar
     7     6     7  ar
     8     7    10  ar
     9     8     9  ar
    10     9    10  ar
    11    10    11   1
    12    11    12  ar
    13    11    14  ar
    14    12    13  ar
    15    13    16  ar
    16    14    15  ar
    17    15    16  ar
    18    16    17   1
    19    17    18   1
    20    18    19   1
    21    19    20   1
    22    20    21   1
    23    20    25   1
    24    21    22  ar
    25    21    23  ar
    26    21    24  ar
    27    25    26  ar
    28    25    27  ar
    29    25    28  ar
    30     1    29   1
    31     1    30   1
    32     1    31   1
    33     2    32   1
    34     2    33   1
    35     3    34   1
    36     3    35   1
    37     4    36   1
    38     4    37   1
    39     6    38   1
    40     7    39   1
    41     8    40   1
    42     9    41   1
    43    12    42   1
    44    13    43   1
    45    14    44   1
    46    15    45   1
    47    17    46   1
    48    17    47   1
    49    18    48   1
    50    18    49   1
    51    19    50   1
    52    19    51   1
    53    20    52   1
@<TRIPOS>SUBSTRUCTURE
     1  B69      1

