@<TRIPOS>MOLECULE
2zcr_ligand_071
    52    53
SMALL
GAST_HUCK
****
This file was generated by PARSER (from files_GN.cpp)

@<TRIPOS>ATOM
      1 CAA        10.5008   61.3940   39.5882 C.3         1 B69      -0.0651
      2 CAP         9.2892   61.5328   38.6405 C.3         1 B69      -0.0541
      3 CAQ         9.5351   61.0508   37.1835 C.3         1 B69      -0.0435
      4 CAS         9.6051   59.5165   36.9680 C.3         1 B69      -0.0191
      5 CAV        10.9432   58.8817   37.1369 C.ar        1 B69      -0.0429
      6 CAI        11.1096   57.7479   37.9659 C.ar        1 B69      -0.0600
      7 CAM        12.3520   57.1102   38.0698 C.ar        1 B69      -0.0616
      8 CAH        12.0567   59.3505   36.4083 C.ar        1 B69      -0.0600
      9 CAL        13.2976   58.7107   36.5056 C.ar        1 B69      -0.0616
     10 CAX        13.4698   57.5767   37.3372 C.ar        1 B69      -0.0283
     11 CAY        14.7415   56.9189   37.4338 C.ar        1 B69      -0.0283
     12 CAO        15.5088   56.6232   36.2774 C.ar        1 B69      -0.0616
     13 CAK        16.7502   55.9820   36.3813 C.ar        1 B69      -0.0600
     14 CAN        15.2904   56.5744   38.6973 C.ar        1 B69      -0.0616
     15 CAJ        16.5356   55.9284   38.7984 C.ar        1 B69      -0.0600
     16 CAW        17.2797   55.6032   37.6395 C.ar        1 B69      -0.0429
     17 CAT        18.6065   54.9132   37.7449 C.3         1 B69      -0.0190
     18 CAR        18.7151   53.8231   38.8588 C.3         1 B69      -0.0402
     19 CAU        18.9023   52.3466   38.3964 C.3         1 B69      -0.0165
     20 CAZ        17.9079   51.6834   37.3773 C.3         1 B69       0.1121
     21 PBA        18.1084   52.0797   35.7579 P.3         1 B69       0.0795
     22 OAC        17.7971   50.9541   34.9046 O.co2       1 B69      -0.5610
     23 OAD        17.3150   53.1879   35.3036 O.co2       1 B69      -0.5610
     24 OAB        19.4930   52.3782   35.4646 O.co2       1 B69      -0.5610
     25 SBB        16.1601   51.7586   37.8814 S.o2        1 B69      -0.1731
     26 OAG        15.3509   50.3750   37.3211 O.co2       1 B69      -0.4830
     27 OAF        15.3930   53.1333   37.2426 O.co2       1 B69      -0.4830
     28 OAE        16.0337   51.7973   39.5764 O.co2       1 B69      -0.4830
     29 H1         10.2735   61.8594   40.5482 H           1 B69       0.0230
     30 H2         11.3772   61.8895   39.1612 H           1 B69       0.0230
     31 H3         10.7355   60.3461   39.7666 H           1 B69       0.0230
     32 H4          9.0140   62.5895   38.6074 H           1 B69       0.0264
     33 H5          8.4402   60.9873   39.0650 H           1 B69       0.0264
     34 H6         10.4368   61.5363   36.7892 H           1 B69       0.0287
     35 H7          8.6965   61.4315   36.5854 H           1 B69       0.0287
     36 H8          9.2934   59.2978   35.9458 H           1 B69       0.0427
     37 H9          8.8583   59.0420   37.6133 H           1 B69       0.0427
     38 H10        10.3230   57.3793   38.4940 H           1 B69       0.0558
     39 H11        12.4348   56.2748   38.6597 H           1 B69       0.0600
     40 H12        11.9703   60.1477   35.7806 H           1 B69       0.0558
     41 H13        14.0870   59.0777   35.9632 H           1 B69       0.0600
     42 H14        15.1490   56.8355   35.3462 H           1 B69       0.0600
     43 H15        17.2923   55.8091   35.5247 H           1 B69       0.0558
     44 H16        14.7787   56.7958   39.5588 H           1 B69       0.0600
     45 H17        16.8982   55.6929   39.7308 H           1 B69       0.0558
     46 H18        19.3524   55.7058   37.9535 H           1 B69       0.0427
     47 H19        18.8979   54.4764   36.7809 H           1 B69       0.0427
     48 H20        17.8565   53.8700   39.5521 H           1 B69       0.0288
     49 H21        19.6078   54.0644   39.4607 H           1 B69       0.0288
     50 H22        18.8341   51.7442   39.3171 H           1 B69       0.0298
     51 H23        19.9360   52.2186   38.0371 H           1 B69       0.0298
     52 H24        18.1459   50.6141   37.4060 H           1 B69       0.0695
@<TRIPOS>BOND
     1     1     2   1
     2     2     3   1
     3     3     4   1
     4     4     5   1
     5     5     6  ar
     6     5     8  ar
     7     6     7  ar
     8     7    10  ar
     9     8     9  ar
    10     9    10  ar
    11    10    11   1
    12    11    12  ar
    13    11    14  ar
    14    12    13  ar
    15    13    16  ar
    16    14    15  ar
    17    15    16  ar
    18    16    17   1
    19    17    18   1
    20    18    19   1
    21    19    20   1
    22    20    21   1
    23    20    25   1
    24    21    22  ar
    25    21    23  ar
    26    21    24  ar
    27    25    26  ar
    28    25    27  ar
    29    25    28  ar
    30     1    29   1
    31     1    30   1
    32     1    31   1
    33     2    32   1
    34     2    33   1
    35     3    34   1
    36     3    35   1
    37     4    36   1
    38     4    37   1
    39     6    38   1
    40     7    39   1
    41     8    40   1
    42     9    41   1
    43    12    42   1
    44    13    43   1
    45    14    44   1
    46    15    45   1
    47    17    46   1
    48    17    47   1
    49    18    48   1
    50    18    49   1
    51    19    50   1
    52    19    51   1
    53    20    52   1
@<TRIPOS>SUBSTRUCTURE
     1  B69      1

