@<TRIPOS>MOLECULE
2zcr_ligand_026
    52    53
SMALL
GAST_HUCK
****
This file was generated by PARSER (from files_GN.cpp)

@<TRIPOS>ATOM
      1 CAA        15.1805   53.8052   36.0298 C.3         1 B69      -0.0651
      2 CAP        14.6502   55.2585   35.9404 C.3         1 B69      -0.0541
      3 CAQ        15.4364   56.2826   36.8074 C.3         1 B69      -0.0435
      4 CAS        16.8381   56.7118   36.2735 C.3         1 B69      -0.0191
      5 CAV        17.9954   55.7818   36.4613 C.ar        1 B69      -0.0429
      6 CAI        18.8912   55.5275   35.3964 C.ar        1 B69      -0.0600
      7 CAM        20.0618   54.7785   35.6023 C.ar        1 B69      -0.0616
      8 CAH        18.2917   55.2240   37.7267 C.ar        1 B69      -0.0600
      9 CAL        19.4573   54.4565   37.9201 C.ar        1 B69      -0.0616
     10 CAX        20.3834   54.2286   36.8689 C.ar        1 B69      -0.0283
     11 CAY        21.5928   53.4822   37.0760 C.ar        1 B69      -0.0283
     12 CAO        22.3620   53.6052   38.2635 C.ar        1 B69      -0.0616
     13 CAK        23.5251   52.8431   38.4798 C.ar        1 B69      -0.0600
     14 CAN        22.0777   52.5657   36.1072 C.ar        1 B69      -0.0616
     15 CAJ        23.2561   51.8182   36.3047 C.ar        1 B69      -0.0600
     16 CAW        23.9840   51.9199   37.5134 C.ar        1 B69      -0.0429
     17 CAT        25.2178   51.1017   37.7383 C.3         1 B69      -0.0190
     18 CAR        25.0726   49.6082   37.2932 C.3         1 B69      -0.0402
     19 CAU        26.2030   48.6345   37.7451 C.3         1 B69      -0.0165
     20 CAZ        27.4158   48.3985   36.7670 C.3         1 B69       0.1121
     21 PBA        27.0730   47.4069   35.4537 P.3         1 B69       0.0795
     22 OAC        26.6769   46.0878   35.8746 O.co2       1 B69      -0.5610
     23 OAD        26.0196   47.9300   34.6203 O.co2       1 B69      -0.5610
     24 OAB        28.2069   47.2411   34.5756 O.co2       1 B69      -0.5610
     25 SBB        28.8123   47.6953   37.7106 S.o2        1 B69      -0.1731
     26 OAG        29.5243   48.9096   38.6444 O.co2       1 B69      -0.4830
     27 OAF        29.9977   47.0189   36.7010 O.co2       1 B69      -0.4830
     28 OAE        28.2295   46.4729   38.7358 O.co2       1 B69      -0.4830
     29 H1         14.5270   53.1412   35.4629 H           1 B69       0.0230
     30 H2         15.1973   53.4761   37.0689 H           1 B69       0.0230
     31 H3         16.1831   53.7350   35.6092 H           1 B69       0.0230
     32 H4         13.6031   55.2502   36.2877 H           1 B69       0.0264
     33 H5         14.6453   55.5822   34.8903 H           1 B69       0.0264
     34 H6         15.5149   55.9074   37.8349 H           1 B69       0.0287
     35 H7         14.8200   57.1853   36.8453 H           1 B69       0.0287
     36 H8         17.1003   57.6366   36.7891 H           1 B69       0.0427
     37 H9         16.7059   56.9559   35.2105 H           1 B69       0.0427
     38 H10        18.7182   55.9242   34.4662 H           1 B69       0.0558
     39 H11        20.6923   54.6612   34.8117 H           1 B69       0.0600
     40 H12        17.6623   55.3949   38.5149 H           1 B69       0.0558
     41 H13        19.6107   54.0691   38.8507 H           1 B69       0.0600
     42 H14        22.0862   54.2645   38.9913 H           1 B69       0.0600
     43 H15        24.0348   52.9513   39.3640 H           1 B69       0.0558
     44 H16        21.5673   52.4216   35.2347 H           1 B69       0.0600
     45 H17        23.5705   51.1894   35.5604 H           1 B69       0.0558
     46 H18        25.4940   51.1037   38.7967 H           1 B69       0.0427
     47 H19        26.0536   51.5463   37.1902 H           1 B69       0.0427
     48 H20        24.9726   49.5644   36.2041 H           1 B69       0.0288
     49 H21        24.1412   49.2155   37.7184 H           1 B69       0.0288
     50 H22        25.7522   47.6555   37.9665 H           1 B69       0.0298
     51 H23        26.5833   49.0125   38.6987 H           1 B69       0.0298
     52 H24        27.7507   49.3634   36.3734 H           1 B69       0.0695
@<TRIPOS>BOND
     1     1     2   1
     2     2     3   1
     3     3     4   1
     4     4     5   1
     5     5     6  ar
     6     5     8  ar
     7     6     7  ar
     8     7    10  ar
     9     8     9  ar
    10     9    10  ar
    11    10    11   1
    12    11    12  ar
    13    11    14  ar
    14    12    13  ar
    15    13    16  ar
    16    14    15  ar
    17    15    16  ar
    18    16    17   1
    19    17    18   1
    20    18    19   1
    21    19    20   1
    22    20    21   1
    23    20    25   1
    24    21    22  ar
    25    21    23  ar
    26    21    24  ar
    27    25    26  ar
    28    25    27  ar
    29    25    28  ar
    30     1    29   1
    31     1    30   1
    32     1    31   1
    33     2    32   1
    34     2    33   1
    35     3    34   1
    36     3    35   1
    37     4    36   1
    38     4    37   1
    39     6    38   1
    40     7    39   1
    41     8    40   1
    42     9    41   1
    43    12    42   1
    44    13    43   1
    45    14    44   1
    46    15    45   1
    47    17    46   1
    48    17    47   1
    49    18    48   1
    50    18    49   1
    51    19    50   1
    52    19    51   1
    53    20    52   1
@<TRIPOS>SUBSTRUCTURE
     1  B69      1

