@<TRIPOS>MOLECULE
2zcr_ligand_035
    52    53
SMALL
GAST_HUCK
****
This file was generated by PARSER (from files_GN.cpp)

@<TRIPOS>ATOM
      1 CAA        27.9952   48.9267   37.3446 C.3         1 B69      -0.0651
      2 CAP        27.2544   47.7824   38.0736 C.3         1 B69      -0.0541
      3 CAQ        25.9530   47.3157   37.3444 C.3         1 B69      -0.0435
      4 CAS        24.6430   47.5405   38.1521 C.3         1 B69      -0.0191
      5 CAV        24.4839   48.9211   38.6856 C.ar        1 B69      -0.0429
      6 CAI        23.9239   49.9453   37.8894 C.ar        1 B69      -0.0600
      7 CAM        23.8176   51.2637   38.3705 C.ar        1 B69      -0.0616
      8 CAH        24.8856   49.2437   40.0015 C.ar        1 B69      -0.0600
      9 CAL        24.7852   50.5569   40.4826 C.ar        1 B69      -0.0616
     10 CAX        24.2737   51.6060   39.6720 C.ar        1 B69      -0.0283
     11 CAY        24.2253   52.9536   40.1717 C.ar        1 B69      -0.0283
     12 CAO        23.2108   53.8735   39.7977 C.ar        1 B69      -0.0616
     13 CAK        23.1605   55.1697   40.3485 C.ar        1 B69      -0.0600
     14 CAN        25.1865   53.4050   41.1103 C.ar        1 B69      -0.0616
     15 CAJ        25.1405   54.7005   41.6514 C.ar        1 B69      -0.0600
     16 CAW        24.1343   55.6147   41.2764 C.ar        1 B69      -0.0429
     17 CAT        24.0762   56.9908   41.8690 C.3         1 B69      -0.0190
     18 CAR        25.4185   57.7991   41.8354 C.3         1 B69      -0.0402
     19 CAU        26.2434   57.7012   43.1597 C.3         1 B69      -0.0165
     20 CAZ        27.7689   58.0837   43.1686 C.3         1 B69       0.1121
     21 PBA        28.0992   59.6630   43.5832 P.3         1 B69       0.0795
     22 OAC        29.3987   59.7453   44.2183 O.co2       1 B69      -0.5610
     23 OAD        28.0617   60.6223   42.4990 O.co2       1 B69      -0.5610
     24 OAB        27.1875   60.1334   44.6006 O.co2       1 B69      -0.5610
     25 SBB        28.6965   57.6378   41.6657 S.o2        1 B69      -0.1731
     26 OAG        28.3674   58.7371   40.4199 O.co2       1 B69      -0.4830
     27 OAF        28.2450   56.0840   41.1757 O.co2       1 B69      -0.4830
     28 OAE        30.3607   57.6474   41.9756 O.co2       1 B69      -0.4830
     29 H1         28.8363   49.2679   37.9513 H           1 B69       0.0230
     30 H2         27.3242   49.7721   37.1744 H           1 B69       0.0230
     31 H3         28.3733   48.5748   36.3814 H           1 B69       0.0230
     32 H4         27.0264   48.1234   39.0910 H           1 B69       0.0264
     33 H5         27.9457   46.9355   38.1630 H           1 B69       0.0264
     34 H6         26.0333   46.2445   37.1431 H           1 B69       0.0287
     35 H7         25.8590   47.7965   36.3677 H           1 B69       0.0287
     36 H8         24.6278   46.8187   38.9714 H           1 B69       0.0427
     37 H9         23.7865   47.3097   37.5156 H           1 B69       0.0427
     38 H10        23.5949   49.7355   36.9434 H           1 B69       0.0558
     39 H11        23.4182   51.9813   37.7568 H           1 B69       0.0600
     40 H12        25.2571   48.5254   40.6181 H           1 B69       0.0558
     41 H13        25.0723   50.7486   41.4483 H           1 B69       0.0600
     42 H14        22.4759   53.5940   39.1469 H           1 B69       0.0600
     43 H15        22.3898   55.7887   40.0850 H           1 B69       0.0558
     44 H16        25.9374   52.7814   41.4164 H           1 B69       0.0600
     45 H17        25.8597   54.9516   42.3231 H           1 B69       0.0558
     46 H18        23.7262   56.8998   42.9015 H           1 B69       0.0427
     47 H19        23.3212   57.5813   41.3394 H           1 B69       0.0427
     48 H20        25.1961   58.8581   41.6550 H           1 B69       0.0288
     49 H21        25.9971   57.4531   40.9825 H           1 B69       0.0288
     50 H22        26.1900   56.6821   43.5218 H           1 B69       0.0298
     51 H23        25.7063   58.2844   43.9139 H           1 B69       0.0298
     52 H24        28.2247   57.4822   43.9611 H           1 B69       0.0695
@<TRIPOS>BOND
     1     1     2   1
     2     2     3   1
     3     3     4   1
     4     4     5   1
     5     5     6  ar
     6     5     8  ar
     7     6     7  ar
     8     7    10  ar
     9     8     9  ar
    10     9    10  ar
    11    10    11   1
    12    11    12  ar
    13    11    14  ar
    14    12    13  ar
    15    13    16  ar
    16    14    15  ar
    17    15    16  ar
    18    16    17   1
    19    17    18   1
    20    18    19   1
    21    19    20   1
    22    20    21   1
    23    20    25   1
    24    21    22  ar
    25    21    23  ar
    26    21    24  ar
    27    25    26  ar
    28    25    27  ar
    29    25    28  ar
    30     1    29   1
    31     1    30   1
    32     1    31   1
    33     2    32   1
    34     2    33   1
    35     3    34   1
    36     3    35   1
    37     4    36   1
    38     4    37   1
    39     6    38   1
    40     7    39   1
    41     8    40   1
    42     9    41   1
    43    12    42   1
    44    13    43   1
    45    14    44   1
    46    15    45   1
    47    17    46   1
    48    17    47   1
    49    18    48   1
    50    18    49   1
    51    19    50   1
    52    19    51   1
    53    20    52   1
@<TRIPOS>SUBSTRUCTURE
     1  B69      1

