@<TRIPOS>MOLECULE
2zcr_ligand_003
    52    53
SMALL
GAST_HUCK
****
This file was generated by PARSER (from files_GN.cpp)

@<TRIPOS>ATOM
      1 CAA        18.9880   50.1530   34.5280 C.3         1 B69      -0.0651
      2 CAP        17.8997   51.1758   34.9368 C.3         1 B69      -0.0541
      3 CAQ        18.4492   52.4049   35.7113 C.3         1 B69      -0.0435
      4 CAS        18.4353   52.2422   37.2588 C.3         1 B69      -0.0191
      5 CAV        19.4904   53.0307   37.9516 C.ar        1 B69      -0.0429
      6 CAI        20.8419   52.8525   37.5949 C.ar        1 B69      -0.0600
      7 CAM        21.8647   53.5411   38.2707 C.ar        1 B69      -0.0616
      8 CAH        19.1827   53.9175   39.0058 C.ar        1 B69      -0.0600
      9 CAL        20.2099   54.5890   39.6988 C.ar        1 B69      -0.0616
     10 CAX        21.5743   54.4069   39.3549 C.ar        1 B69      -0.0283
     11 CAY        22.6321   55.0452   40.0841 C.ar        1 B69      -0.0283
     12 CAO        23.8714   54.3899   40.3151 C.ar        1 B69      -0.0616
     13 CAK        24.9169   55.0297   41.0039 C.ar        1 B69      -0.0600
     14 CAN        22.4845   56.3590   40.5933 C.ar        1 B69      -0.0616
     15 CAJ        23.5253   56.9982   41.2917 C.ar        1 B69      -0.0600
     16 CAW        24.7581   56.3431   41.4986 C.ar        1 B69      -0.0429
     17 CAT        25.8559   56.9820   42.2785 C.3         1 B69      -0.0190
     18 CAR        26.9889   57.5849   41.4049 C.3         1 B69      -0.0402
     19 CAU        28.1333   58.3173   42.1747 C.3         1 B69      -0.0165
     20 CAZ        28.7143   57.7650   43.5257 C.3         1 B69       0.1121
     21 PBA        29.3410   56.2129   43.5138 P.3         1 B69       0.0795
     22 OAC        28.9676   55.3901   44.6488 O.co2       1 B69      -0.5610
     23 OAD        29.0131   55.3970   42.3590 O.co2       1 B69      -0.5610
     24 OAB        30.7833   56.2356   43.5364 O.co2       1 B69      -0.5610
     25 SBB        27.6555   58.0955   44.9709 S.o2        1 B69      -0.1731
     26 OAG        27.1873   59.7215   44.9997 O.co2       1 B69      -0.4830
     27 OAF        28.5323   57.7701   46.3842 O.co2       1 B69      -0.4830
     28 OAE        26.2830   57.1148   44.9987 O.co2       1 B69      -0.4830
     29 H1         18.5227   49.2830   34.0572 H           1 B69       0.0230
     30 H2         19.5547   49.8132   35.3978 H           1 B69       0.0230
     31 H3         19.6802   50.6039   33.8114 H           1 B69       0.0230
     32 H4         17.1415   50.6724   35.5424 H           1 B69       0.0264
     33 H5         17.4129   51.5228   34.0218 H           1 B69       0.0264
     34 H6         17.8359   53.2722   35.4573 H           1 B69       0.0287
     35 H7         19.4598   52.6127   35.3506 H           1 B69       0.0287
     36 H8         18.5822   51.1964   37.5345 H           1 B69       0.0427
     37 H9         17.4416   52.5189   37.6212 H           1 B69       0.0427
     38 H10        21.1047   52.2188   36.8372 H           1 B69       0.0558
     39 H11        22.8257   53.3916   37.9582 H           1 B69       0.0600
     40 H12        18.2124   54.0695   39.2906 H           1 B69       0.0558
     41 H13        19.9450   55.1869   40.4810 H           1 B69       0.0600
     42 H14        24.0269   53.4261   40.0009 H           1 B69       0.0600
     43 H15        25.7942   54.5215   41.1558 H           1 B69       0.0558
     44 H16        21.6157   56.8803   40.4436 H           1 B69       0.0600
     45 H17        23.3755   57.9495   41.6423 H           1 B69       0.0558
     46 H18        26.2836   56.2064   42.9101 H           1 B69       0.0427
     47 H19        25.4613   57.7640   42.9285 H           1 B69       0.0427
     48 H20        26.5383   58.3043   40.7150 H           1 B69       0.0288
     49 H21        27.4286   56.7926   40.8028 H           1 B69       0.0288
     50 H22        27.8056   59.3479   42.3419 H           1 B69       0.0298
     51 H23        28.9730   58.3920   41.4709 H           1 B69       0.0298
     52 H24        29.5781   58.4090   43.7273 H           1 B69       0.0695
@<TRIPOS>BOND
     1     1     2   1
     2     2     3   1
     3     3     4   1
     4     4     5   1
     5     5     6  ar
     6     5     8  ar
     7     6     7  ar
     8     7    10  ar
     9     8     9  ar
    10     9    10  ar
    11    10    11   1
    12    11    12  ar
    13    11    14  ar
    14    12    13  ar
    15    13    16  ar
    16    14    15  ar
    17    15    16  ar
    18    16    17   1
    19    17    18   1
    20    18    19   1
    21    19    20   1
    22    20    21   1
    23    20    25   1
    24    21    22  ar
    25    21    23  ar
    26    21    24  ar
    27    25    26  ar
    28    25    27  ar
    29    25    28  ar
    30     1    29   1
    31     1    30   1
    32     1    31   1
    33     2    32   1
    34     2    33   1
    35     3    34   1
    36     3    35   1
    37     4    36   1
    38     4    37   1
    39     6    38   1
    40     7    39   1
    41     8    40   1
    42     9    41   1
    43    12    42   1
    44    13    43   1
    45    14    44   1
    46    15    45   1
    47    17    46   1
    48    17    47   1
    49    18    48   1
    50    18    49   1
    51    19    50   1
    52    19    51   1
    53    20    52   1
@<TRIPOS>SUBSTRUCTURE
     1  B69      1

