@<TRIPOS>MOLECULE
2zcr_ligand_064
    52    53
SMALL
GAST_HUCK
****
This file was generated by PARSER (from files_GN.cpp)

@<TRIPOS>ATOM
      1 CAA        18.3235   55.6318   35.1804 C.3         1 B69      -0.0651
      2 CAP        19.8517   55.8711   35.2373 C.3         1 B69      -0.0541
      3 CAQ        20.6515   54.8683   36.1160 C.3         1 B69      -0.0435
      4 CAS        20.9088   53.4648   35.4902 C.3         1 B69      -0.0191
      5 CAV        21.9683   52.6232   36.1376 C.ar        1 B69      -0.0429
      6 CAI        22.3792   52.7777   37.4838 C.ar        1 B69      -0.0600
      7 CAM        23.4472   52.0286   38.0144 C.ar        1 B69      -0.0616
      8 CAH        22.6194   51.6281   35.3719 C.ar        1 B69      -0.0600
      9 CAL        23.6850   50.8767   35.9009 C.ar        1 B69      -0.0616
     10 CAX        24.1354   51.0678   37.2307 C.ar        1 B69      -0.0283
     11 CAY        25.2318   50.3021   37.7651 C.ar        1 B69      -0.0283
     12 CAO        26.3768   49.9976   36.9814 C.ar        1 B69      -0.0616
     13 CAK        27.4170   49.1973   37.4898 C.ar        1 B69      -0.0600
     14 CAN        25.1942   49.7938   39.0871 C.ar        1 B69      -0.0616
     15 CAJ        26.2419   49.0028   39.6001 C.ar        1 B69      -0.0600
     16 CAW        27.3628   48.6795   38.8040 C.ar        1 B69      -0.0429
     17 CAT        28.4289   47.7694   39.3072 C.3         1 B69      -0.0190
     18 CAR        29.6358   48.5039   39.9578 C.3         1 B69      -0.0402
     19 CAU        29.4369   48.9532   41.4449 C.3         1 B69      -0.0165
     20 CAZ        29.2633   50.4923   41.6774 C.3         1 B69       0.1121
     21 PBA        30.6863   51.3701   41.5617 P.3         1 B69       0.0795
     22 OAC        31.6430   50.9981   42.5749 O.co2       1 B69      -0.5610
     23 OAD        31.3418   51.1996   40.2891 O.co2       1 B69      -0.5610
     24 OAB        30.4634   52.7849   41.6914 O.co2       1 B69      -0.5610
     25 SBB        28.4959   50.8092   43.2953 S.o2        1 B69      -0.1731
     26 OAG        27.0216   49.9856   43.3952 O.co2       1 B69      -0.4830
     27 OAF        28.1959   52.4614   43.4982 O.co2       1 B69      -0.4830
     28 OAE        29.5153   50.2727   44.5342 O.co2       1 B69      -0.4830
     29 H1         17.8576   56.3749   34.5283 H           1 B69       0.0230
     30 H2         17.8852   55.7290   36.1769 H           1 B69       0.0230
     31 H3         18.0932   54.6396   34.7893 H           1 B69       0.0230
     32 H4         20.0079   56.8777   35.6394 H           1 B69       0.0264
     33 H5         20.2498   55.8669   34.2196 H           1 B69       0.0264
     34 H6         20.1402   54.7566   37.0778 H           1 B69       0.0287
     35 H7         21.6225   55.3317   36.3080 H           1 B69       0.0287
     36 H8         21.2032   53.6356   34.4495 H           1 B69       0.0427
     37 H9         19.9745   52.9019   35.4779 H           1 B69       0.0427
     38 H10        21.9215   53.4535   38.0967 H           1 B69       0.0558
     39 H11        23.7313   52.2113   38.9821 H           1 B69       0.0600
     40 H12        22.3297   51.4469   34.4075 H           1 B69       0.0558
     41 H13        24.1332   50.1787   35.2994 H           1 B69       0.0600
     42 H14        26.4649   50.3599   36.0266 H           1 B69       0.0600
     43 H15        28.2186   48.9890   36.8874 H           1 B69       0.0558
     44 H16        24.3861   49.9735   39.6912 H           1 B69       0.0600
     45 H17        26.1668   48.6452   40.5547 H           1 B69       0.0558
     46 H18        28.8016   47.1750   38.4697 H           1 B69       0.0427
     47 H19        28.0109   47.0527   40.0169 H           1 B69       0.0427
     48 H20        29.9147   49.3512   39.3265 H           1 B69       0.0288
     49 H21        30.4825   47.8124   39.9363 H           1 B69       0.0288
     50 H22        30.2828   48.5983   42.0439 H           1 B69       0.0298
     51 H23        28.5630   48.4331   41.8464 H           1 B69       0.0298
     52 H24        28.5685   50.8767   40.9288 H           1 B69       0.0695
@<TRIPOS>BOND
     1     1     2   1
     2     2     3   1
     3     3     4   1
     4     4     5   1
     5     5     6  ar
     6     5     8  ar
     7     6     7  ar
     8     7    10  ar
     9     8     9  ar
    10     9    10  ar
    11    10    11   1
    12    11    12  ar
    13    11    14  ar
    14    12    13  ar
    15    13    16  ar
    16    14    15  ar
    17    15    16  ar
    18    16    17   1
    19    17    18   1
    20    18    19   1
    21    19    20   1
    22    20    21   1
    23    20    25   1
    24    21    22  ar
    25    21    23  ar
    26    21    24  ar
    27    25    26  ar
    28    25    27  ar
    29    25    28  ar
    30     1    29   1
    31     1    30   1
    32     1    31   1
    33     2    32   1
    34     2    33   1
    35     3    34   1
    36     3    35   1
    37     4    36   1
    38     4    37   1
    39     6    38   1
    40     7    39   1
    41     8    40   1
    42     9    41   1
    43    12    42   1
    44    13    43   1
    45    14    44   1
    46    15    45   1
    47    17    46   1
    48    17    47   1
    49    18    48   1
    50    18    49   1
    51    19    50   1
    52    19    51   1
    53    20    52   1
@<TRIPOS>SUBSTRUCTURE
     1  B69      1

