@<TRIPOS>MOLECULE
2zcr_ligand_054
    52    53
SMALL
GAST_HUCK
****
This file was generated by PARSER (from files_GN.cpp)

@<TRIPOS>ATOM
      1 CAA        24.8608   51.5392   37.9260 C.3         1 B69      -0.0651
      2 CAP        24.6377   52.2693   39.2726 C.3         1 B69      -0.0541
      3 CAQ        23.6313   53.4527   39.1705 C.3         1 B69      -0.0435
      4 CAS        23.1952   54.0638   40.5343 C.3         1 B69      -0.0191
      5 CAV        24.1261   55.0682   41.1115 C.ar        1 B69      -0.0429
      6 CAI        25.3710   54.6674   41.6556 C.ar        1 B69      -0.0600
      7 CAM        26.2033   55.5962   42.3024 C.ar        1 B69      -0.0616
      8 CAH        23.7443   56.4276   41.2361 C.ar        1 B69      -0.0600
      9 CAL        24.5772   57.3551   41.8831 C.ar        1 B69      -0.0616
     10 CAX        25.8122   56.9509   42.4458 C.ar        1 B69      -0.0283
     11 CAY        26.5988   57.8522   43.2085 C.ar        1 B69      -0.0283
     12 CAO        27.0957   59.0526   42.6553 C.ar        1 B69      -0.0616
     13 CAK        27.8524   59.9425   43.4369 C.ar        1 B69      -0.0600
     14 CAN        26.8709   57.5722   44.5707 C.ar        1 B69      -0.0616
     15 CAJ        27.6211   58.4671   45.3525 C.ar        1 B69      -0.0600
     16 CAW        28.1267   59.6628   44.7975 C.ar        1 B69      -0.0429
     17 CAT        28.8954   60.6155   45.6512 C.3         1 B69      -0.0190
     18 CAR        30.1629   59.9853   46.2878 C.3         1 B69      -0.0402
     19 CAU        30.9620   60.9845   47.1586 C.3         1 B69      -0.0165
     20 CAZ        32.4250   60.5488   47.4901 C.3         1 B69       0.1121
     21 PBA        32.5640   59.2396   48.5273 P.3         1 B69       0.0795
     22 OAC        33.9335   58.8176   48.6933 O.co2       1 B69      -0.5610
     23 OAD        32.0368   59.5263   49.8378 O.co2       1 B69      -0.5610
     24 OAB        31.8750   58.0697   48.0415 O.co2       1 B69      -0.5610
     25 SBB        33.3515   61.9592   48.1633 S.o2        1 B69      -0.1731
     26 OAG        32.9637   62.1865   49.8000 O.co2       1 B69      -0.4830
     27 OAF        32.9589   63.3748   47.3091 O.co2       1 B69      -0.4830
     28 OAE        35.0244   61.7006   48.0114 O.co2       1 B69      -0.4830
     29 H1         25.5371   50.7003   38.0752 H           1 B69       0.0230
     30 H2         25.3027   52.2203   37.1962 H           1 B69       0.0230
     31 H3         23.9150   51.1611   37.5409 H           1 B69       0.0230
     32 H4         25.6040   52.6414   39.6308 H           1 B69       0.0264
     33 H5         24.2599   51.5406   39.9988 H           1 B69       0.0264
     34 H6         22.7276   53.0811   38.6781 H           1 B69       0.0287
     35 H7         24.0487   54.2387   38.5327 H           1 B69       0.0287
     36 H8         23.0444   53.2667   41.2667 H           1 B69       0.0427
     37 H9         22.2126   54.5266   40.3819 H           1 B69       0.0427
     38 H10        25.6618   53.6867   41.6196 H           1 B69       0.0558
     39 H11        27.0917   55.2714   42.7001 H           1 B69       0.0600
     40 H12        22.8373   56.7437   40.8761 H           1 B69       0.0558
     41 H13        24.2537   58.3204   41.9762 H           1 B69       0.0600
     42 H14        26.9139   59.2852   41.6767 H           1 B69       0.0600
     43 H15        28.2035   60.8015   43.0117 H           1 B69       0.0558
     44 H16        26.5202   56.7101   45.0029 H           1 B69       0.0600
     45 H17        27.7705   58.2532   46.3446 H           1 B69       0.0558
     46 H18        28.2336   60.9743   46.4457 H           1 B69       0.0427
     47 H19        29.1926   61.4909   45.0688 H           1 B69       0.0427
     48 H20        30.8120   59.6069   45.4852 H           1 B69       0.0288
     49 H21        29.8474   59.1362   46.9012 H           1 B69       0.0288
     50 H22        30.4204   61.1691   48.0832 H           1 B69       0.0298
     51 H23        31.0032   61.9291   46.6176 H           1 B69       0.0298
     52 H24        32.9223   60.2745   46.5578 H           1 B69       0.0695
@<TRIPOS>BOND
     1     1     2   1
     2     2     3   1
     3     3     4   1
     4     4     5   1
     5     5     6  ar
     6     5     8  ar
     7     6     7  ar
     8     7    10  ar
     9     8     9  ar
    10     9    10  ar
    11    10    11   1
    12    11    12  ar
    13    11    14  ar
    14    12    13  ar
    15    13    16  ar
    16    14    15  ar
    17    15    16  ar
    18    16    17   1
    19    17    18   1
    20    18    19   1
    21    19    20   1
    22    20    21   1
    23    20    25   1
    24    21    22  ar
    25    21    23  ar
    26    21    24  ar
    27    25    26  ar
    28    25    27  ar
    29    25    28  ar
    30     1    29   1
    31     1    30   1
    32     1    31   1
    33     2    32   1
    34     2    33   1
    35     3    34   1
    36     3    35   1
    37     4    36   1
    38     4    37   1
    39     6    38   1
    40     7    39   1
    41     8    40   1
    42     9    41   1
    43    12    42   1
    44    13    43   1
    45    14    44   1
    46    15    45   1
    47    17    46   1
    48    17    47   1
    49    18    48   1
    50    18    49   1
    51    19    50   1
    52    19    51   1
    53    20    52   1
@<TRIPOS>SUBSTRUCTURE
     1  B69      1

