@<TRIPOS>MOLECULE
2zcr_ligand_053
    52    53
SMALL
GAST_HUCK
****
This file was generated by PARSER (from files_GN.cpp)

@<TRIPOS>ATOM
      1 CAA        17.9337   56.4061   36.7265 C.3         1 B69      -0.0651
      2 CAP        19.4165   56.6798   36.3907 C.3         1 B69      -0.0541
      3 CAQ        20.3306   55.4246   36.4116 C.3         1 B69      -0.0435
      4 CAS        20.5446   54.7940   37.8202 C.3         1 B69      -0.0191
      5 CAV        21.6750   53.8221   37.8860 C.ar        1 B69      -0.0429
      6 CAI        22.6879   53.9385   38.8686 C.ar        1 B69      -0.0600
      7 CAM        23.7366   53.0018   38.9451 C.ar        1 B69      -0.0616
      8 CAH        21.7420   52.7311   36.9898 C.ar        1 B69      -0.0600
      9 CAL        22.8042   51.8123   37.0446 C.ar        1 B69      -0.0616
     10 CAX        23.8134   51.9312   38.0270 C.ar        1 B69      -0.0283
     11 CAY        24.8564   50.9719   38.0941 C.ar        1 B69      -0.0283
     12 CAO        25.6918   50.7258   36.9804 C.ar        1 B69      -0.0616
     13 CAK        26.6850   49.7316   37.0273 C.ar        1 B69      -0.0600
     14 CAN        25.0491   50.2009   39.2634 C.ar        1 B69      -0.0616
     15 CAJ        26.0350   49.1961   39.3064 C.ar        1 B69      -0.0600
     16 CAW        26.8694   48.9495   38.1901 C.ar        1 B69      -0.0429
     17 CAT        27.9382   47.9126   38.2413 C.3         1 B69      -0.0190
     18 CAR        29.3650   48.5126   38.3764 C.3         1 B69      -0.0402
     19 CAU        29.6553   49.1638   39.7653 C.3         1 B69      -0.0165
     20 CAZ        30.8492   50.1737   39.7929 C.3         1 B69       0.1121
     21 PBA        32.3605   49.4806   39.5933 P.3         1 B69       0.0795
     22 OAC        32.6739   48.5406   40.6401 O.co2       1 B69      -0.5610
     23 OAD        32.4835   48.7840   38.3378 O.co2       1 B69      -0.5610
     24 OAB        33.3886   50.4894   39.5872 O.co2       1 B69      -0.5610
     25 SBB        30.8189   51.2076   41.2945 S.o2        1 B69      -0.1731
     26 OAG        29.2376   51.4180   41.8595 O.co2       1 B69      -0.4830
     27 OAF        31.4507   52.7277   40.9144 O.co2       1 B69      -0.4830
     28 OAE        31.7328   50.5254   42.5441 O.co2       1 B69      -0.4830
     29 H1         17.3702   57.3383   36.6775 H           1 B69       0.0230
     30 H2         17.8327   55.9950   37.7310 H           1 B69       0.0230
     31 H3         17.5054   55.7029   36.0092 H           1 B69       0.0230
     32 H4         19.8090   57.4238   37.0880 H           1 B69       0.0264
     33 H5         19.4608   57.1155   35.3881 H           1 B69       0.0264
     34 H6         21.3039   55.7148   36.0013 H           1 B69       0.0287
     35 H7         19.9027   54.6760   35.7367 H           1 B69       0.0287
     36 H8         19.6333   54.2711   38.1181 H           1 B69       0.0427
     37 H9         20.7022   55.6029   38.5393 H           1 B69       0.0427
     38 H10        22.6629   54.7032   39.5493 H           1 B69       0.0558
     39 H11        24.4497   53.1139   39.6716 H           1 B69       0.0600
     40 H12        21.0151   52.5962   36.2828 H           1 B69       0.0558
     41 H13        22.8225   51.0396   36.3717 H           1 B69       0.0600
     42 H14        25.5817   51.2762   36.1248 H           1 B69       0.0600
     43 H15        27.2701   49.5789   36.2072 H           1 B69       0.0558
     44 H16        24.4591   50.3480   40.0886 H           1 B69       0.0600
     45 H17        26.1494   48.6505   40.1683 H           1 B69       0.0558
     46 H18        27.8897   47.3204   37.3256 H           1 B69       0.0427
     47 H19        27.7730   47.2188   39.0720 H           1 B69       0.0427
     48 H20        29.5168   49.2458   37.5822 H           1 B69       0.0288
     49 H21        30.0794   47.7031   38.2187 H           1 B69       0.0288
     50 H22        29.8079   48.3793   40.5085 H           1 B69       0.0298
     51 H23        28.7591   49.7114   40.0576 H           1 B69       0.0298
     52 H24        30.7105   50.8654   38.9628 H           1 B69       0.0695
@<TRIPOS>BOND
     1     1     2   1
     2     2     3   1
     3     3     4   1
     4     4     5   1
     5     5     6  ar
     6     5     8  ar
     7     6     7  ar
     8     7    10  ar
     9     8     9  ar
    10     9    10  ar
    11    10    11   1
    12    11    12  ar
    13    11    14  ar
    14    12    13  ar
    15    13    16  ar
    16    14    15  ar
    17    15    16  ar
    18    16    17   1
    19    17    18   1
    20    18    19   1
    21    19    20   1
    22    20    21   1
    23    20    25   1
    24    21    22  ar
    25    21    23  ar
    26    21    24  ar
    27    25    26  ar
    28    25    27  ar
    29    25    28  ar
    30     1    29   1
    31     1    30   1
    32     1    31   1
    33     2    32   1
    34     2    33   1
    35     3    34   1
    36     3    35   1
    37     4    36   1
    38     4    37   1
    39     6    38   1
    40     7    39   1
    41     8    40   1
    42     9    41   1
    43    12    42   1
    44    13    43   1
    45    14    44   1
    46    15    45   1
    47    17    46   1
    48    17    47   1
    49    18    48   1
    50    18    49   1
    51    19    50   1
    52    19    51   1
    53    20    52   1
@<TRIPOS>SUBSTRUCTURE
     1  B69      1

