@<TRIPOS>MOLECULE
2zcr_ligand_037
    52    53
SMALL
GAST_HUCK
****
This file was generated by PARSER (from files_GN.cpp)

@<TRIPOS>ATOM
      1 CAA         8.2457   59.0754   38.4473 C.3         1 B69      -0.0651
      2 CAP         7.8336   60.5627   38.5241 C.3         1 B69      -0.0541
      3 CAQ         8.9993   61.5823   38.6533 C.3         1 B69      -0.0435
      4 CAS        10.0403   61.5806   37.4972 C.3         1 B69      -0.0191
      5 CAV        11.1560   60.6082   37.6588 C.ar        1 B69      -0.0429
      6 CAI        12.1049   60.7691   38.6955 C.ar        1 B69      -0.0600
      7 CAM        13.1727   59.8646   38.8479 C.ar        1 B69      -0.0616
      8 CAH        11.3093   59.5114   36.7805 C.ar        1 B69      -0.0600
      9 CAL        12.3655   58.5968   36.9465 C.ar        1 B69      -0.0616
     10 CAX        13.3175   58.7504   37.9828 C.ar        1 B69      -0.0283
     11 CAY        14.3943   57.8216   38.1384 C.ar        1 B69      -0.0283
     12 CAO        14.9687   57.1766   37.0134 C.ar        1 B69      -0.0616
     13 CAK        15.9930   56.2264   37.1548 C.ar        1 B69      -0.0600
     14 CAN        14.9185   57.4951   39.4148 C.ar        1 B69      -0.0616
     15 CAJ        15.9351   56.5308   39.5628 C.ar        1 B69      -0.0600
     16 CAW        16.4682   55.8614   38.4396 C.ar        1 B69      -0.0429
     17 CAT        17.4381   54.7428   38.6021 C.3         1 B69      -0.0190
     18 CAR        16.7487   53.3712   38.8853 C.3         1 B69      -0.0402
     19 CAU        15.6547   52.8987   37.8622 C.3         1 B69      -0.0165
     20 CAZ        16.0496   51.9532   36.6688 C.3         1 B69       0.1121
     21 PBA        15.9597   50.3320   37.0455 P.3         1 B69       0.0795
     22 OAC        16.3796   49.4714   35.9656 O.co2       1 B69      -0.5610
     23 OAD        16.7228   49.9979   38.2272 O.co2       1 B69      -0.5610
     24 OAB        14.5851   49.9544   37.2974 O.co2       1 B69      -0.5610
     25 SBB        17.6146   52.3319   35.8206 S.o2        1 B69      -0.1731
     26 OAG        17.7885   51.3328   34.4650 O.co2       1 B69      -0.4830
     27 OAF        18.9316   52.0764   36.8500 O.co2       1 B69      -0.4830
     28 OAE        17.6087   53.9313   35.2760 O.co2       1 B69      -0.4830
     29 H1          7.3654   58.4445   38.5918 H           1 B69       0.0230
     30 H2          8.9747   58.8376   39.2225 H           1 B69       0.0230
     31 H3          8.6687   58.8460   37.4704 H           1 B69       0.0230
     32 H4          7.1862   60.6872   39.3984 H           1 B69       0.0264
     33 H5          7.2380   60.8082   37.6412 H           1 B69       0.0264
     34 H6          9.4954   61.4398   39.6164 H           1 B69       0.0287
     35 H7          8.5451   62.5768   38.6834 H           1 B69       0.0287
     36 H8         10.4891   62.5746   37.4321 H           1 B69       0.0427
     37 H9          9.5172   61.4216   36.5514 H           1 B69       0.0427
     38 H10        12.0330   61.5633   39.3394 H           1 B69       0.0558
     39 H11        13.8478   60.0329   39.6006 H           1 B69       0.0600
     40 H12        10.6475   59.3636   36.0164 H           1 B69       0.0558
     41 H13        12.4101   57.7955   36.3104 H           1 B69       0.0600
     42 H14        14.6470   57.3920   36.0649 H           1 B69       0.0600
     43 H15        16.3681   55.7714   36.3175 H           1 B69       0.0558
     44 H16        14.5392   57.9339   40.2569 H           1 B69       0.0600
     45 H17        16.2739   56.3105   40.5040 H           1 B69       0.0558
     46 H18        18.1097   54.9765   39.4370 H           1 B69       0.0427
     47 H19        18.0752   54.6555   37.7212 H           1 B69       0.0427
     48 H20        16.2776   53.4526   39.8708 H           1 B69       0.0288
     49 H21        17.5206   52.6043   38.9875 H           1 B69       0.0288
     50 H22        15.1690   53.7752   37.4323 H           1 B69       0.0298
     51 H23        14.8740   52.4008   38.4504 H           1 B69       0.0298
     52 H24        15.2919   52.1148   35.8939 H           1 B69       0.0695
@<TRIPOS>BOND
     1     1     2   1
     2     2     3   1
     3     3     4   1
     4     4     5   1
     5     5     6  ar
     6     5     8  ar
     7     6     7  ar
     8     7    10  ar
     9     8     9  ar
    10     9    10  ar
    11    10    11   1
    12    11    12  ar
    13    11    14  ar
    14    12    13  ar
    15    13    16  ar
    16    14    15  ar
    17    15    16  ar
    18    16    17   1
    19    17    18   1
    20    18    19   1
    21    19    20   1
    22    20    21   1
    23    20    25   1
    24    21    22  ar
    25    21    23  ar
    26    21    24  ar
    27    25    26  ar
    28    25    27  ar
    29    25    28  ar
    30     1    29   1
    31     1    30   1
    32     1    31   1
    33     2    32   1
    34     2    33   1
    35     3    34   1
    36     3    35   1
    37     4    36   1
    38     4    37   1
    39     6    38   1
    40     7    39   1
    41     8    40   1
    42     9    41   1
    43    12    42   1
    44    13    43   1
    45    14    44   1
    46    15    45   1
    47    17    46   1
    48    17    47   1
    49    18    48   1
    50    18    49   1
    51    19    50   1
    52    19    51   1
    53    20    52   1
@<TRIPOS>SUBSTRUCTURE
     1  B69      1

