@<TRIPOS>MOLECULE
2zcr_ligand_052
    52    53
SMALL
GAST_HUCK
****
This file was generated by PARSER (from files_GN.cpp)

@<TRIPOS>ATOM
      1 CAA        25.5829   57.6765   41.3546 C.3         1 B69      -0.0651
      2 CAP        24.2180   57.9151   40.6597 C.3         1 B69      -0.0541
      3 CAQ        23.0019   57.2348   41.3768 C.3         1 B69      -0.0435
      4 CAS        22.1949   56.1929   40.5314 C.3         1 B69      -0.0191
      5 CAV        22.9002   54.9624   40.0495 C.ar        1 B69      -0.0429
      6 CAI        23.9397   54.3590   40.7950 C.ar        1 B69      -0.0600
      7 CAM        24.5870   53.2011   40.3320 C.ar        1 B69      -0.0616
      8 CAH        22.4801   54.3164   38.8597 C.ar        1 B69      -0.0600
      9 CAL        23.1183   53.1480   38.4058 C.ar        1 B69      -0.0616
     10 CAX        24.1963   52.5803   39.1239 C.ar        1 B69      -0.0283
     11 CAY        24.8566   51.4059   38.6733 C.ar        1 B69      -0.0283
     12 CAO        25.4716   51.3641   37.4024 C.ar        1 B69      -0.0616
     13 CAK        26.1219   50.1982   36.9539 C.ar        1 B69      -0.0600
     14 CAN        24.9104   50.2508   39.4857 C.ar        1 B69      -0.0616
     15 CAJ        25.5520   49.0848   39.0319 C.ar        1 B69      -0.0600
     16 CAW        26.1795   49.0441   37.7678 C.ar        1 B69      -0.0429
     17 CAT        26.9063   47.8249   37.3094 C.3         1 B69      -0.0190
     18 CAR        28.4482   48.0023   37.2053 C.3         1 B69      -0.0402
     19 CAU        29.1473   48.4504   38.5263 C.3         1 B69      -0.0165
     20 CAZ        30.5626   49.0944   38.3463 C.3         1 B69       0.1121
     21 PBA        31.7771   48.0121   37.9620 P.3         1 B69       0.0795
     22 OAC        32.1032   47.1300   39.0601 O.co2       1 B69      -0.5610
     23 OAD        31.4441   47.1818   36.8307 O.co2       1 B69      -0.5610
     24 OAB        32.9822   48.7064   37.5955 O.co2       1 B69      -0.5610
     25 SBB        31.0403   50.0998   39.7945 S.o2        1 B69      -0.1731
     26 OAG        32.0476   49.2440   40.8515 O.co2       1 B69      -0.4830
     27 OAF        29.6813   50.6084   40.6643 O.co2       1 B69      -0.4830
     28 OAE        31.8647   51.4729   39.2524 O.co2       1 B69      -0.4830
     29 H1         26.3688   58.2171   40.8267 H           1 B69       0.0230
     30 H2         25.8389   56.6160   41.3597 H           1 B69       0.0230
     31 H3         25.5440   58.0348   42.3890 H           1 B69       0.0230
     32 H4         24.3025   57.5862   39.6191 H           1 B69       0.0264
     33 H5         24.0430   58.9975   40.6318 H           1 B69       0.0264
     34 H6         22.3050   58.0255   41.6745 H           1 B69       0.0287
     35 H7         23.3263   56.7596   42.3094 H           1 B69       0.0287
     36 H8         21.7654   56.7400   39.6848 H           1 B69       0.0427
     37 H9         21.3463   55.8539   41.1244 H           1 B69       0.0427
     38 H10        24.2528   54.7603   41.6826 H           1 B69       0.0558
     39 H11        25.3625   52.8260   40.8906 H           1 B69       0.0600
     40 H12        21.6943   54.6876   38.3188 H           1 B69       0.0558
     41 H13        22.7837   52.7038   37.5496 H           1 B69       0.0600
     42 H14        25.4577   52.1917   36.7925 H           1 B69       0.0600
     43 H15        26.5705   50.2117   36.0358 H           1 B69       0.0558
     44 H16        24.4637   50.2402   40.4036 H           1 B69       0.0600
     45 H17        25.5835   48.2690   39.6484 H           1 B69       0.0558
     46 H18        26.5263   47.5389   36.3260 H           1 B69       0.0427
     47 H19        26.7180   46.9758   37.9758 H           1 B69       0.0427
     48 H20        28.6682   48.7249   36.4128 H           1 B69       0.0288
     49 H21        28.8702   47.0411   36.8995 H           1 B69       0.0288
     50 H22        29.1944   47.6095   39.2159 H           1 B69       0.0298
     51 H23        28.4982   49.2025   38.9788 H           1 B69       0.0298
     52 H24        30.5048   49.8038   37.5209 H           1 B69       0.0695
@<TRIPOS>BOND
     1     1     2   1
     2     2     3   1
     3     3     4   1
     4     4     5   1
     5     5     6  ar
     6     5     8  ar
     7     6     7  ar
     8     7    10  ar
     9     8     9  ar
    10     9    10  ar
    11    10    11   1
    12    11    12  ar
    13    11    14  ar
    14    12    13  ar
    15    13    16  ar
    16    14    15  ar
    17    15    16  ar
    18    16    17   1
    19    17    18   1
    20    18    19   1
    21    19    20   1
    22    20    21   1
    23    20    25   1
    24    21    22  ar
    25    21    23  ar
    26    21    24  ar
    27    25    26  ar
    28    25    27  ar
    29    25    28  ar
    30     1    29   1
    31     1    30   1
    32     1    31   1
    33     2    32   1
    34     2    33   1
    35     3    34   1
    36     3    35   1
    37     4    36   1
    38     4    37   1
    39     6    38   1
    40     7    39   1
    41     8    40   1
    42     9    41   1
    43    12    42   1
    44    13    43   1
    45    14    44   1
    46    15    45   1
    47    17    46   1
    48    17    47   1
    49    18    48   1
    50    18    49   1
    51    19    50   1
    52    19    51   1
    53    20    52   1
@<TRIPOS>SUBSTRUCTURE
     1  B69      1

