@<TRIPOS>MOLECULE
2zcr_ligand_048
    52    53
SMALL
GAST_HUCK
****
This file was generated by PARSER (from files_GN.cpp)

@<TRIPOS>ATOM
      1 CAA        20.1880   55.9657   34.9449 C.3         1 B69      -0.0651
      2 CAP        20.3538   54.7402   35.8684 C.3         1 B69      -0.0541
      3 CAQ        19.8841   55.0208   37.3249 C.3         1 B69      -0.0435
      4 CAS        19.8144   53.7649   38.2420 C.3         1 B69      -0.0191
      5 CAV        20.9713   52.8296   38.1133 C.ar        1 B69      -0.0429
      6 CAI        22.2914   53.2792   38.3424 C.ar        1 B69      -0.0600
      7 CAM        23.3868   52.4056   38.2054 C.ar        1 B69      -0.0616
      8 CAH        20.7743   51.4759   37.7586 C.ar        1 B69      -0.0600
      9 CAL        21.8688   50.6022   37.6145 C.ar        1 B69      -0.0616
     10 CAX        23.1932   51.0566   37.8277 C.ar        1 B69      -0.0283
     11 CAY        24.2994   50.1695   37.6901 C.ar        1 B69      -0.0283
     12 CAO        25.4051   50.4941   36.8681 C.ar        1 B69      -0.0616
     13 CAK        26.4831   49.5986   36.7210 C.ar        1 B69      -0.0600
     14 CAN        24.3079   48.9279   38.3651 C.ar        1 B69      -0.0616
     15 CAJ        25.3834   48.0352   38.2173 C.ar        1 B69      -0.0600
     16 CAW        26.4863   48.3574   37.3957 C.ar        1 B69      -0.0429
     17 CAT        27.5958   47.3781   37.2166 C.3         1 B69      -0.0190
     18 CAR        28.8116   47.6307   38.1486 C.3         1 B69      -0.0402
     19 CAU        29.8214   48.6861   37.6093 C.3         1 B69      -0.0165
     20 CAZ        31.2448   48.7142   38.2552 C.3         1 B69       0.1121
     21 PBA        32.1416   47.3123   38.0831 P.3         1 B69       0.0795
     22 OAC        33.5588   47.5739   38.1551 O.co2       1 B69      -0.5610
     23 OAD        31.8411   46.3053   39.0797 O.co2       1 B69      -0.5610
     24 OAB        31.9166   46.6938   36.7952 O.co2       1 B69      -0.5610
     25 SBB        31.2179   49.2412   39.9947 S.o2        1 B69      -0.1731
     26 OAG        30.4077   48.1014   40.9442 O.co2       1 B69      -0.4830
     27 OAF        30.4353   50.7365   40.1458 O.co2       1 B69      -0.4830
     28 OAE        32.8027   49.3979   40.5641 O.co2       1 B69      -0.4830
     29 H1         20.5812   55.7309   33.9553 H           1 B69       0.0230
     30 H2         20.7384   56.8171   35.3443 H           1 B69       0.0230
     31 H3         19.1335   56.2366   34.8481 H           1 B69       0.0230
     32 H4         21.4155   54.4695   35.8761 H           1 B69       0.0264
     33 H5         19.7871   53.9052   35.4530 H           1 B69       0.0264
     34 H6         18.8889   55.4768   37.3046 H           1 B69       0.0287
     35 H7         20.5651   55.7486   37.7789 H           1 B69       0.0287
     36 H8         18.8761   53.2427   38.0130 H           1 B69       0.0427
     37 H9         19.7469   54.0946   39.2810 H           1 B69       0.0427
     38 H10        22.4660   54.2493   38.6120 H           1 B69       0.0558
     39 H11        24.3300   52.7658   38.3745 H           1 B69       0.0600
     40 H12        19.8344   51.1202   37.5710 H           1 B69       0.0558
     41 H13        21.6903   49.6323   37.3391 H           1 B69       0.0600
     42 H14        25.4270   51.3814   36.3579 H           1 B69       0.0600
     43 H15        27.2549   49.8483   36.0992 H           1 B69       0.0558
     44 H16        23.5298   48.6587   38.9733 H           1 B69       0.0600
     45 H17        25.3504   47.1421   38.7131 H           1 B69       0.0558
     46 H18        27.9174   47.3671   36.1725 H           1 B69       0.0427
     47 H19        27.2178   46.3706   37.4250 H           1 B69       0.0427
     48 H20        29.3275   46.6735   38.2634 H           1 B69       0.0288
     49 H21        28.4557   47.9378   39.1365 H           1 B69       0.0288
     50 H22        29.3659   49.6691   37.7135 H           1 B69       0.0298
     51 H23        29.9499   48.5139   36.5346 H           1 B69       0.0298
     52 H24        31.7998   49.4968   37.7267 H           1 B69       0.0695
@<TRIPOS>BOND
     1     1     2   1
     2     2     3   1
     3     3     4   1
     4     4     5   1
     5     5     6  ar
     6     5     8  ar
     7     6     7  ar
     8     7    10  ar
     9     8     9  ar
    10     9    10  ar
    11    10    11   1
    12    11    12  ar
    13    11    14  ar
    14    12    13  ar
    15    13    16  ar
    16    14    15  ar
    17    15    16  ar
    18    16    17   1
    19    17    18   1
    20    18    19   1
    21    19    20   1
    22    20    21   1
    23    20    25   1
    24    21    22  ar
    25    21    23  ar
    26    21    24  ar
    27    25    26  ar
    28    25    27  ar
    29    25    28  ar
    30     1    29   1
    31     1    30   1
    32     1    31   1
    33     2    32   1
    34     2    33   1
    35     3    34   1
    36     3    35   1
    37     4    36   1
    38     4    37   1
    39     6    38   1
    40     7    39   1
    41     8    40   1
    42     9    41   1
    43    12    42   1
    44    13    43   1
    45    14    44   1
    46    15    45   1
    47    17    46   1
    48    17    47   1
    49    18    48   1
    50    18    49   1
    51    19    50   1
    52    19    51   1
    53    20    52   1
@<TRIPOS>SUBSTRUCTURE
     1  B69      1

