@<TRIPOS>MOLECULE
2zcr_ligand_019
    52    53
SMALL
GAST_HUCK
****
This file was generated by PARSER (from files_GN.cpp)

@<TRIPOS>ATOM
      1 CAA        25.3811   57.4211   41.6679 C.3         1 B69      -0.0651
      2 CAP        24.3411   56.4301   42.2467 C.3         1 B69      -0.0541
      3 CAQ        23.9390   55.2842   41.2722 C.3         1 B69      -0.0435
      4 CAS        25.0504   54.2167   41.0506 C.3         1 B69      -0.0191
      5 CAV        24.6239   53.0537   40.2218 C.ar        1 B69      -0.0429
      6 CAI        24.9941   51.7285   40.5655 C.ar        1 B69      -0.0600
      7 CAM        24.6487   50.6430   39.7352 C.ar        1 B69      -0.0616
      8 CAH        23.8979   53.2478   39.0272 C.ar        1 B69      -0.0600
      9 CAL        23.5586   52.1626   38.1953 C.ar        1 B69      -0.0616
     10 CAX        23.9314   50.8362   38.5314 C.ar        1 B69      -0.0283
     11 CAY        23.5924   49.7425   37.6742 C.ar        1 B69      -0.0283
     12 CAO        24.4250   48.5966   37.5873 C.ar        1 B69      -0.0616
     13 CAK        24.1104   47.5358   36.7154 C.ar        1 B69      -0.0600
     14 CAN        22.4402   49.7799   36.8536 C.ar        1 B69      -0.0616
     15 CAJ        22.1336   48.7278   35.9784 C.ar        1 B69      -0.0600
     16 CAW        22.9489   47.5710   35.9064 C.ar        1 B69      -0.0429
     17 CAT        22.6230   46.4565   34.9723 C.3         1 B69      -0.0190
     18 CAR        22.5207   45.0609   35.6504 C.3         1 B69      -0.0402
     19 CAU        21.9138   43.9717   34.7125 C.3         1 B69      -0.0165
     20 CAZ        22.1619   42.4865   35.1492 C.3         1 B69       0.1121
     21 PBA        23.6975   41.9201   34.7959 P.3         1 B69       0.0795
     22 OAC        24.7108   42.4602   35.6716 O.co2       1 B69      -0.5610
     23 OAD        23.8107   40.4836   34.9159 O.co2       1 B69      -0.5610
     24 OAB        24.0890   42.2651   33.4466 O.co2       1 B69      -0.5610
     25 SBB        20.8767   41.3735   34.4809 S.o2        1 B69      -0.1731
     26 OAG        21.5175   40.1500   33.5014 O.co2       1 B69      -0.4830
     27 OAF        19.7443   42.2217   33.5555 O.co2       1 B69      -0.4830
     28 OAE        20.0789   40.6498   35.7854 O.co2       1 B69      -0.4830
     29 H1         25.5526   58.2262   42.3853 H           1 B69       0.0230
     30 H2         25.0105   57.8526   40.7351 H           1 B69       0.0230
     31 H3         26.3333   56.9186   41.4783 H           1 B69       0.0230
     32 H4         23.4400   56.9941   42.4963 H           1 B69       0.0264
     33 H5         24.7327   55.9955   43.1750 H           1 B69       0.0264
     34 H6         23.6550   55.7266   40.3094 H           1 B69       0.0287
     35 H7         23.0533   54.7827   41.6816 H           1 B69       0.0287
     36 H8         25.3990   53.8775   42.0315 H           1 B69       0.0427
     37 H9         25.9096   54.6733   40.5479 H           1 B69       0.0427
     38 H10        25.5222   51.5537   41.4200 H           1 B69       0.0558
     39 H11        24.9326   49.7047   40.0262 H           1 B69       0.0600
     40 H12        23.6415   54.1935   38.7227 H           1 B69       0.0558
     41 H13        23.0561   52.3545   37.3254 H           1 B69       0.0600
     42 H14        25.2813   48.5299   38.1524 H           1 B69       0.0600
     43 H15        24.7439   46.7322   36.6737 H           1 B69       0.0558
     44 H16        21.8082   50.5828   36.8907 H           1 B69       0.0600
     45 H17        21.2993   48.8007   35.4017 H           1 B69       0.0558
     46 H18        23.3994   46.4214   34.2026 H           1 B69       0.0427
     47 H19        21.6735   46.6632   34.4646 H           1 B69       0.0427
     48 H20        21.9002   45.1345   36.5525 H           1 B69       0.0288
     49 H21        23.5202   44.7664   35.9635 H           1 B69       0.0288
     50 H22        22.2757   44.1173   33.6883 H           1 B69       0.0298
     51 H23        20.8394   44.1748   34.6938 H           1 B69       0.0298
     52 H24        22.0556   42.4380   36.2366 H           1 B69       0.0695
@<TRIPOS>BOND
     1     1     2   1
     2     2     3   1
     3     3     4   1
     4     4     5   1
     5     5     6  ar
     6     5     8  ar
     7     6     7  ar
     8     7    10  ar
     9     8     9  ar
    10     9    10  ar
    11    10    11   1
    12    11    12  ar
    13    11    14  ar
    14    12    13  ar
    15    13    16  ar
    16    14    15  ar
    17    15    16  ar
    18    16    17   1
    19    17    18   1
    20    18    19   1
    21    19    20   1
    22    20    21   1
    23    20    25   1
    24    21    22  ar
    25    21    23  ar
    26    21    24  ar
    27    25    26  ar
    28    25    27  ar
    29    25    28  ar
    30     1    29   1
    31     1    30   1
    32     1    31   1
    33     2    32   1
    34     2    33   1
    35     3    34   1
    36     3    35   1
    37     4    36   1
    38     4    37   1
    39     6    38   1
    40     7    39   1
    41     8    40   1
    42     9    41   1
    43    12    42   1
    44    13    43   1
    45    14    44   1
    46    15    45   1
    47    17    46   1
    48    17    47   1
    49    18    48   1
    50    18    49   1
    51    19    50   1
    52    19    51   1
    53    20    52   1
@<TRIPOS>SUBSTRUCTURE
     1  B69      1

