@<TRIPOS>MOLECULE
2zcr_ligand_077
    52    53
SMALL
GAST_HUCK
****
This file was generated by PARSER (from files_GN.cpp)

@<TRIPOS>ATOM
      1 CAA        19.0816   56.8395   36.6255 C.3         1 B69      -0.0651
      2 CAP        20.1034   56.0089   35.8047 C.3         1 B69      -0.0541
      3 CAQ        19.4620   54.7928   35.0723 C.3         1 B69      -0.0435
      4 CAS        19.2950   53.5032   35.9433 C.3         1 B69      -0.0191
      5 CAV        20.4868   52.6368   36.2299 C.ar        1 B69      -0.0429
      6 CAI        21.5736   52.5237   35.3284 C.ar        1 B69      -0.0600
      7 CAM        22.6056   51.5961   35.5493 C.ar        1 B69      -0.0616
      8 CAH        20.4652   51.7732   37.3535 C.ar        1 B69      -0.0600
      9 CAL        21.5008   50.8490   37.5814 C.ar        1 B69      -0.0616
     10 CAX        22.5765   50.7432   36.6753 C.ar        1 B69      -0.0283
     11 CAY        23.6096   49.7949   36.8748 C.ar        1 B69      -0.0283
     12 CAO        23.7244   48.6659   36.0262 C.ar        1 B69      -0.0616
     13 CAK        24.7911   47.7607   36.1770 C.ar        1 B69      -0.0600
     14 CAN        24.5904   49.9883   37.8783 C.ar        1 B69      -0.0616
     15 CAJ        25.6677   49.0891   38.0215 C.ar        1 B69      -0.0600
     16 CAW        25.7888   47.9662   37.1632 C.ar        1 B69      -0.0429
     17 CAT        26.9186   46.9982   37.3170 C.3         1 B69      -0.0190
     18 CAR        28.2595   47.4502   36.6577 C.3         1 B69      -0.0402
     19 CAU        29.0982   48.4902   37.4637 C.3         1 B69      -0.0165
     20 CAZ        29.7862   47.9023   38.7603 C.3         1 B69       0.1121
     21 PBA        29.7273   48.9433   40.0714 P.3         1 B69       0.0795
     22 OAC        28.3577   49.3178   40.3111 O.co2       1 B69      -0.5610
     23 OAD        30.1836   48.3143   41.2867 O.co2       1 B69      -0.5610
     24 OAB        30.4759   50.1556   39.8448 O.co2       1 B69      -0.5610
     25 SBB        31.5098   47.3939   38.4448 S.o2        1 B69      -0.1731
     26 OAG        31.5584   46.4737   37.0239 O.co2       1 B69      -0.4830
     27 OAF        32.0964   46.4637   39.7304 O.co2       1 B69      -0.4830
     28 OAE        32.4875   48.7661   38.2588 O.co2       1 B69      -0.4830
     29 H1         19.5972   57.7119   37.0563 H           1 B69       0.0230
     30 H2         18.6522   56.2300   37.4326 H           1 B69       0.0230
     31 H3         18.2770   57.1902   35.9593 H           1 B69       0.0230
     32 H4         20.9139   55.6688   36.4643 H           1 B69       0.0264
     33 H5         20.5447   56.6710   35.0514 H           1 B69       0.0264
     34 H6         20.0709   54.5673   34.1901 H           1 B69       0.0287
     35 H7         18.4680   55.0872   34.7014 H           1 B69       0.0287
     36 H8         18.5671   52.8637   35.4377 H           1 B69       0.0427
     37 H9         18.8206   53.8009   36.8827 H           1 B69       0.0427
     38 H10        21.6208   53.1000   34.4859 H           1 B69       0.0558
     39 H11        23.3740   51.5309   34.8777 H           1 B69       0.0600
     40 H12        19.6752   51.7999   38.0059 H           1 B69       0.0558
     41 H13        21.4436   50.2316   38.3901 H           1 B69       0.0600
     42 H14        23.0255   48.4986   35.2952 H           1 B69       0.0600
     43 H15        24.8468   46.9536   35.5434 H           1 B69       0.0558
     44 H16        24.5365   50.8026   38.5019 H           1 B69       0.0600
     45 H17        26.3691   49.2535   38.7517 H           1 B69       0.0558
     46 H18        26.6380   46.0419   36.8588 H           1 B69       0.0427
     47 H19        27.0659   46.7827   38.3785 H           1 B69       0.0427
     48 H20        28.0400   47.8640   35.6679 H           1 B69       0.0288
     49 H21        28.8794   46.5627   36.4903 H           1 B69       0.0288
     50 H22        28.4306   49.3322   37.6967 H           1 B69       0.0298
     51 H23        29.8771   48.8816   36.7915 H           1 B69       0.0298
     52 H24        29.2631   46.9894   39.0714 H           1 B69       0.0695
@<TRIPOS>BOND
     1     1     2   1
     2     2     3   1
     3     3     4   1
     4     4     5   1
     5     5     6  ar
     6     5     8  ar
     7     6     7  ar
     8     7    10  ar
     9     8     9  ar
    10     9    10  ar
    11    10    11   1
    12    11    12  ar
    13    11    14  ar
    14    12    13  ar
    15    13    16  ar
    16    14    15  ar
    17    15    16  ar
    18    16    17   1
    19    17    18   1
    20    18    19   1
    21    19    20   1
    22    20    21   1
    23    20    25   1
    24    21    22  ar
    25    21    23  ar
    26    21    24  ar
    27    25    26  ar
    28    25    27  ar
    29    25    28  ar
    30     1    29   1
    31     1    30   1
    32     1    31   1
    33     2    32   1
    34     2    33   1
    35     3    34   1
    36     3    35   1
    37     4    36   1
    38     4    37   1
    39     6    38   1
    40     7    39   1
    41     8    40   1
    42     9    41   1
    43    12    42   1
    44    13    43   1
    45    14    44   1
    46    15    45   1
    47    17    46   1
    48    17    47   1
    49    18    48   1
    50    18    49   1
    51    19    50   1
    52    19    51   1
    53    20    52   1
@<TRIPOS>SUBSTRUCTURE
     1  B69      1

