@<TRIPOS>MOLECULE
2zcr_ligand_007
    52    53
SMALL
GAST_HUCK
****
This file was generated by PARSER (from files_GN.cpp)

@<TRIPOS>ATOM
      1 CAA        16.1303   50.7786   37.5780 C.3         1 B69      -0.0651
      2 CAP        15.9756   52.3137   37.7057 C.3         1 B69      -0.0541
      3 CAQ        16.0847   53.1143   36.3741 C.3         1 B69      -0.0435
      4 CAS        17.4326   52.9771   35.6118 C.3         1 B69      -0.0191
      5 CAV        18.6165   53.3032   36.4564 C.ar        1 B69      -0.0429
      6 CAI        19.4619   52.2841   36.9565 C.ar        1 B69      -0.0600
      7 CAM        20.5254   52.5973   37.8227 C.ar        1 B69      -0.0616
      8 CAH        18.9103   54.6439   36.7964 C.ar        1 B69      -0.0600
      9 CAL        19.9866   54.9527   37.6525 C.ar        1 B69      -0.0616
     10 CAX        20.8041   53.9345   38.1984 C.ar        1 B69      -0.0283
     11 CAY        21.8750   54.2513   39.0944 C.ar        1 B69      -0.0283
     12 CAO        21.7322   55.2238   40.1134 C.ar        1 B69      -0.0616
     13 CAK        22.8155   55.5748   40.9397 C.ar        1 B69      -0.0600
     14 CAN        23.1241   53.5931   38.9825 C.ar        1 B69      -0.0616
     15 CAJ        24.1956   53.9247   39.8307 C.ar        1 B69      -0.0600
     16 CAW        24.0782   54.9481   40.7981 C.ar        1 B69      -0.0429
     17 CAT        25.2382   55.3850   41.6298 C.3         1 B69      -0.0190
     18 CAR        25.4984   56.9312   41.5931 C.3         1 B69      -0.0402
     19 CAU        26.9950   57.3851   41.6321 C.3         1 B69      -0.0165
     20 CAZ        27.6654   57.7236   43.0084 C.3         1 B69       0.1121
     21 PBA        27.5218   56.5478   44.1913 P.3         1 B69       0.0795
     22 OAC        27.8671   55.2507   43.6673 O.co2       1 B69      -0.5610
     23 OAD        28.4495   56.8017   45.2620 O.co2       1 B69      -0.5610
     24 OAB        26.1989   56.4898   44.7567 O.co2       1 B69      -0.5610
     25 SBB        27.1745   59.3550   43.6470 S.o2        1 B69      -0.1731
     26 OAG        27.6935   60.5600   42.5798 O.co2       1 B69      -0.4830
     27 OAF        27.8890   59.6350   45.1544 O.co2       1 B69      -0.4830
     28 OAE        25.4943   59.4617   43.8094 O.co2       1 B69      -0.4830
     29 H1         16.0004   50.3202   38.5620 H           1 B69       0.0230
     30 H2         17.1229   50.5195   37.2077 H           1 B69       0.0230
     31 H3         15.3774   50.3693   36.8969 H           1 B69       0.0230
     32 H4         16.7277   52.6849   38.4055 H           1 B69       0.0264
     33 H5         14.9923   52.5207   38.1441 H           1 B69       0.0264
     34 H6         15.9201   54.1727   36.6023 H           1 B69       0.0287
     35 H7         15.2755   52.8040   35.7084 H           1 B69       0.0287
     36 H8         17.4215   53.6525   34.7495 H           1 B69       0.0427
     37 H9         17.5062   51.9598   35.2119 H           1 B69       0.0427
     38 H10        19.2842   51.3046   36.7287 H           1 B69       0.0558
     39 H11        21.0890   51.8205   38.1963 H           1 B69       0.0600
     40 H12        18.3262   55.4038   36.4380 H           1 B69       0.0558
     41 H13        20.1705   55.9361   37.8634 H           1 B69       0.0600
     42 H14        20.8317   55.6997   40.2462 H           1 B69       0.0600
     43 H15        22.6801   56.3027   41.6402 H           1 B69       0.0558
     44 H16        23.2783   52.8707   38.2722 H           1 B69       0.0600
     45 H17        25.0833   53.4298   39.7238 H           1 B69       0.0558
     46 H18        26.1376   54.8502   41.2991 H           1 B69       0.0427
     47 H19        25.0431   55.0763   42.6610 H           1 B69       0.0427
     48 H20        24.9583   57.3860   42.4333 H           1 B69       0.0288
     49 H21        25.0643   57.3373   40.6668 H           1 B69       0.0288
     50 H22        27.0808   58.2854   41.0186 H           1 B69       0.0298
     51 H23        27.6140   56.6329   41.1277 H           1 B69       0.0298
     52 H24        28.7348   57.8145   42.8136 H           1 B69       0.0695
@<TRIPOS>BOND
     1     1     2   1
     2     2     3   1
     3     3     4   1
     4     4     5   1
     5     5     6  ar
     6     5     8  ar
     7     6     7  ar
     8     7    10  ar
     9     8     9  ar
    10     9    10  ar
    11    10    11   1
    12    11    12  ar
    13    11    14  ar
    14    12    13  ar
    15    13    16  ar
    16    14    15  ar
    17    15    16  ar
    18    16    17   1
    19    17    18   1
    20    18    19   1
    21    19    20   1
    22    20    21   1
    23    20    25   1
    24    21    22  ar
    25    21    23  ar
    26    21    24  ar
    27    25    26  ar
    28    25    27  ar
    29    25    28  ar
    30     1    29   1
    31     1    30   1
    32     1    31   1
    33     2    32   1
    34     2    33   1
    35     3    34   1
    36     3    35   1
    37     4    36   1
    38     4    37   1
    39     6    38   1
    40     7    39   1
    41     8    40   1
    42     9    41   1
    43    12    42   1
    44    13    43   1
    45    14    44   1
    46    15    45   1
    47    17    46   1
    48    17    47   1
    49    18    48   1
    50    18    49   1
    51    19    50   1
    52    19    51   1
    53    20    52   1
@<TRIPOS>SUBSTRUCTURE
     1  B69      1

