@<TRIPOS>MOLECULE
2zcr_ligand_004
    52    53
SMALL
GAST_HUCK
****
This file was generated by PARSER (from files_GN.cpp)

@<TRIPOS>ATOM
      1 CAA        18.1118   55.7348   34.9265 C.3         1 B69      -0.0651
      2 CAP        16.9912   55.6396   35.9890 C.3         1 B69      -0.0541
      3 CAQ        16.5170   54.1960   36.3128 C.3         1 B69      -0.0435
      4 CAS        17.6128   53.0979   36.4414 C.3         1 B69      -0.0191
      5 CAV        18.7844   53.4491   37.2917 C.ar        1 B69      -0.0429
      6 CAI        18.6073   54.0327   38.5691 C.ar        1 B69      -0.0600
      7 CAM        19.7163   54.4215   39.3435 C.ar        1 B69      -0.0616
      8 CAH        20.1060   53.2205   36.8465 C.ar        1 B69      -0.0600
      9 CAL        21.2140   53.5966   37.6281 C.ar        1 B69      -0.0616
     10 CAX        21.0440   54.2110   38.8938 C.ar        1 B69      -0.0283
     11 CAY        22.1745   54.6103   39.6843 C.ar        1 B69      -0.0283
     12 CAO        22.1438   55.7848   40.4758 C.ar        1 B69      -0.0616
     13 CAK        23.2672   56.2015   41.2182 C.ar        1 B69      -0.0600
     14 CAN        23.3750   53.8544   39.6908 C.ar        1 B69      -0.0616
     15 CAJ        24.5053   54.2798   40.4129 C.ar        1 B69      -0.0600
     16 CAW        24.4791   55.4747   41.1702 C.ar        1 B69      -0.0429
     17 CAT        25.6992   55.9538   41.8897 C.3         1 B69      -0.0190
     18 CAR        25.9676   57.4862   41.7486 C.3         1 B69      -0.0402
     19 CAU        27.4491   57.9765   41.8070 C.3         1 B69      -0.0165
     20 CAZ        28.3093   57.7646   43.0986 C.3         1 B69       0.1121
     21 PBA        29.1084   56.3003   43.2103 P.3         1 B69       0.0795
     22 OAC        28.7276   55.4493   44.3178 O.co2       1 B69      -0.5610
     23 OAD        29.0470   55.5096   42.0053 O.co2       1 B69      -0.5610
     24 OAB        30.5231   56.5639   43.3716 O.co2       1 B69      -0.5610
     25 SBB        27.4075   58.1543   44.6233 S.o2        1 B69      -0.1731
     26 OAG        26.9650   59.7872   44.6287 O.co2       1 B69      -0.4830
     27 OAF        28.3928   57.8585   45.9694 O.co2       1 B69      -0.4830
     28 OAE        26.0168   57.1999   44.7255 O.co2       1 B69      -0.4830
     29 H1         18.3288   56.7908   34.7386 H           1 B69       0.0230
     30 H2         17.7985   55.2661   33.9908 H           1 B69       0.0230
     31 H3         19.0280   55.2556   35.2843 H           1 B69       0.0230
     32 H4         16.1303   56.2102   35.6218 H           1 B69       0.0264
     33 H5         17.3351   56.1258   36.9072 H           1 B69       0.0264
     34 H6         15.8134   53.8848   35.5343 H           1 B69       0.0287
     35 H7         15.9516   54.2370   37.2463 H           1 B69       0.0287
     36 H8         17.9418   52.8361   35.4359 H           1 B69       0.0427
     37 H9         17.1497   52.1997   36.8600 H           1 B69       0.0427
     38 H10        17.6673   54.2005   38.9323 H           1 B69       0.0558
     39 H11        19.5438   54.8522   40.2552 H           1 B69       0.0600
     40 H12        20.2765   52.7961   35.9320 H           1 B69       0.0558
     41 H13        22.1507   53.4394   37.2483 H           1 B69       0.0600
     42 H14        21.3080   56.3728   40.4997 H           1 B69       0.0600
     43 H15        23.2031   57.0609   41.7671 H           1 B69       0.0558
     44 H16        23.4368   52.9757   39.1743 H           1 B69       0.0600
     45 H17        25.3525   53.7084   40.3814 H           1 B69       0.0558
     46 H18        26.5727   55.4107   41.5246 H           1 B69       0.0427
     47 H19        25.5866   55.7121   42.9511 H           1 B69       0.0427
     48 H20        25.4029   58.0084   42.5271 H           1 B69       0.0288
     49 H21        25.5760   57.8242   40.7817 H           1 B69       0.0288
     50 H22        27.4035   59.0593   41.6444 H           1 B69       0.0298
     51 H23        27.9847   57.5683   40.9428 H           1 B69       0.0298
     52 H24        29.0967   58.5243   43.0354 H           1 B69       0.0695
@<TRIPOS>BOND
     1     1     2   1
     2     2     3   1
     3     3     4   1
     4     4     5   1
     5     5     6  ar
     6     5     8  ar
     7     6     7  ar
     8     7    10  ar
     9     8     9  ar
    10     9    10  ar
    11    10    11   1
    12    11    12  ar
    13    11    14  ar
    14    12    13  ar
    15    13    16  ar
    16    14    15  ar
    17    15    16  ar
    18    16    17   1
    19    17    18   1
    20    18    19   1
    21    19    20   1
    22    20    21   1
    23    20    25   1
    24    21    22  ar
    25    21    23  ar
    26    21    24  ar
    27    25    26  ar
    28    25    27  ar
    29    25    28  ar
    30     1    29   1
    31     1    30   1
    32     1    31   1
    33     2    32   1
    34     2    33   1
    35     3    34   1
    36     3    35   1
    37     4    36   1
    38     4    37   1
    39     6    38   1
    40     7    39   1
    41     8    40   1
    42     9    41   1
    43    12    42   1
    44    13    43   1
    45    14    44   1
    46    15    45   1
    47    17    46   1
    48    17    47   1
    49    18    48   1
    50    18    49   1
    51    19    50   1
    52    19    51   1
    53    20    52   1
@<TRIPOS>SUBSTRUCTURE
     1  B69      1

