@<TRIPOS>MOLECULE
2zcr_ligand_073
    52    53
SMALL
GAST_HUCK
****
This file was generated by PARSER (from files_GN.cpp)

@<TRIPOS>ATOM
      1 CAA        14.8870   58.9571   39.9180 C.3         1 B69      -0.0651
      2 CAP        14.3153   57.5808   39.5070 C.3         1 B69      -0.0541
      3 CAQ        15.3842   56.4521   39.3681 C.3         1 B69      -0.0435
      4 CAS        16.2303   56.4842   38.0629 C.3         1 B69      -0.0191
      5 CAV        17.3343   55.4870   37.9467 C.ar        1 B69      -0.0429
      6 CAI        18.1773   55.5421   36.8110 C.ar        1 B69      -0.0600
      7 CAM        19.2486   54.6449   36.6625 C.ar        1 B69      -0.0616
      8 CAH        17.5814   54.4892   38.9198 C.ar        1 B69      -0.0600
      9 CAL        18.6414   53.5855   38.7696 C.ar        1 B69      -0.0616
     10 CAX        19.4811   53.6613   37.6412 C.ar        1 B69      -0.0283
     11 CAY        20.5620   52.7770   37.5292 C.ar        1 B69      -0.0283
     12 CAO        20.3373   51.4286   37.1882 C.ar        1 B69      -0.0616
     13 CAK        21.4132   50.5320   37.1416 C.ar        1 B69      -0.0600
     14 CAN        21.8628   53.2082   37.8598 C.ar        1 B69      -0.0616
     15 CAJ        22.9297   52.2972   37.8453 C.ar        1 B69      -0.0600
     16 CAW        22.7287   50.9511   37.4500 C.ar        1 B69      -0.0429
     17 CAT        23.8290   49.9499   37.4262 C.3         1 B69      -0.0190
     18 CAR        25.2437   50.5007   37.1007 C.3         1 B69      -0.0402
     19 CAU        26.3135   49.4417   36.7000 C.3         1 B69      -0.0165
     20 CAZ        26.4133   48.0970   37.4938 C.3         1 B69       0.1121
     21 PBA        26.5843   48.2346   39.1575 P.3         1 B69       0.0795
     22 OAC        27.5045   47.2968   39.7492 O.co2       1 B69      -0.5610
     23 OAD        26.9966   49.5543   39.5606 O.co2       1 B69      -0.5610
     24 OAB        25.3264   47.9816   39.8130 O.co2       1 B69      -0.5610
     25 SBB        27.7579   47.0964   36.7863 S.o2        1 B69      -0.1731
     26 OAG        27.6715   45.5181   37.3855 O.co2       1 B69      -0.4830
     27 OAF        29.2578   47.7745   37.1737 O.co2       1 B69      -0.4830
     28 OAE        27.6085   47.0354   35.1023 O.co2       1 B69      -0.4830
     29 H1         14.0762   59.6822   40.0334 H           1 B69       0.0230
     30 H2         15.5782   59.3313   39.1627 H           1 B69       0.0230
     31 H3         15.4068   58.8700   40.8724 H           1 B69       0.0230
     32 H4         13.7580   57.6884   38.5703 H           1 B69       0.0264
     33 H5         13.6001   57.2852   40.2829 H           1 B69       0.0264
     34 H6         14.8713   55.4879   39.4127 H           1 B69       0.0287
     35 H7         16.0534   56.5127   40.2272 H           1 B69       0.0287
     36 H8         16.6789   57.4785   37.9651 H           1 B69       0.0427
     37 H9         15.5579   56.3304   37.2110 H           1 B69       0.0427
     38 H10        18.0249   56.2453   36.0829 H           1 B69       0.0558
     39 H11        19.8499   54.7161   35.8389 H           1 B69       0.0600
     40 H12        17.0050   54.4047   39.7552 H           1 B69       0.0558
     41 H13        18.8044   52.8896   39.5024 H           1 B69       0.0600
     42 H14        19.3912   51.0842   36.9990 H           1 B69       0.0600
     43 H15        21.2228   49.5559   36.9035 H           1 B69       0.0558
     44 H16        22.0296   54.1722   38.1653 H           1 B69       0.0600
     45 H17        23.8489   52.6233   38.1488 H           1 B69       0.0558
     46 H18        23.5820   49.1764   36.6916 H           1 B69       0.0427
     47 H19        23.8538   49.4762   38.4066 H           1 B69       0.0427
     48 H20        25.6058   51.0634   37.9608 H           1 B69       0.0288
     49 H21        25.1608   51.2077   36.2704 H           1 B69       0.0288
     50 H22        27.2889   49.9383   36.7269 H           1 B69       0.0298
     51 H23        26.1195   49.1948   35.6509 H           1 B69       0.0298
     52 H24        25.4998   47.5301   37.3093 H           1 B69       0.0695
@<TRIPOS>BOND
     1     1     2   1
     2     2     3   1
     3     3     4   1
     4     4     5   1
     5     5     6  ar
     6     5     8  ar
     7     6     7  ar
     8     7    10  ar
     9     8     9  ar
    10     9    10  ar
    11    10    11   1
    12    11    12  ar
    13    11    14  ar
    14    12    13  ar
    15    13    16  ar
    16    14    15  ar
    17    15    16  ar
    18    16    17   1
    19    17    18   1
    20    18    19   1
    21    19    20   1
    22    20    21   1
    23    20    25   1
    24    21    22  ar
    25    21    23  ar
    26    21    24  ar
    27    25    26  ar
    28    25    27  ar
    29    25    28  ar
    30     1    29   1
    31     1    30   1
    32     1    31   1
    33     2    32   1
    34     2    33   1
    35     3    34   1
    36     3    35   1
    37     4    36   1
    38     4    37   1
    39     6    38   1
    40     7    39   1
    41     8    40   1
    42     9    41   1
    43    12    42   1
    44    13    43   1
    45    14    44   1
    46    15    45   1
    47    17    46   1
    48    17    47   1
    49    18    48   1
    50    18    49   1
    51    19    50   1
    52    19    51   1
    53    20    52   1
@<TRIPOS>SUBSTRUCTURE
     1  B69      1

