@<TRIPOS>MOLECULE
2zcr_ligand_047
    52    53
SMALL
GAST_HUCK
****
This file was generated by PARSER (from files_GN.cpp)

@<TRIPOS>ATOM
      1 CAA        16.6056   56.3330   35.3389 C.3         1 B69      -0.0651
      2 CAP        17.3758   55.5859   36.4539 C.3         1 B69      -0.0541
      3 CAQ        18.0055   54.2518   35.9670 C.3         1 B69      -0.0435
      4 CAS        18.4305   53.2978   37.1169 C.3         1 B69      -0.0191
      5 CAV        19.5744   53.7969   37.9291 C.ar        1 B69      -0.0429
      6 CAI        20.9030   53.6079   37.4879 C.ar        1 B69      -0.0600
      7 CAM        21.9901   54.0316   38.2753 C.ar        1 B69      -0.0616
      8 CAH        19.3653   54.4411   39.1699 C.ar        1 B69      -0.0600
      9 CAL        20.4510   54.8852   39.9439 C.ar        1 B69      -0.0616
     10 CAX        21.7861   54.6857   39.5160 C.ar        1 B69      -0.0283
     11 CAY        22.8928   55.1133   40.3177 C.ar        1 B69      -0.0283
     12 CAO        24.0023   54.2621   40.5392 C.ar        1 B69      -0.0616
     13 CAK        25.0817   54.6738   41.3413 C.ar        1 B69      -0.0600
     14 CAN        22.9117   56.3969   40.9175 C.ar        1 B69      -0.0616
     15 CAJ        23.9958   56.8128   41.7111 C.ar        1 B69      -0.0600
     16 CAW        25.0937   55.9553   41.9415 C.ar        1 B69      -0.0429
     17 CAT        26.2654   56.4084   42.7409 C.3         1 B69      -0.0190
     18 CAR        27.0921   57.5035   42.0169 C.3         1 B69      -0.0402
     19 CAU        28.5949   57.6319   42.4040 C.3         1 B69      -0.0165
     20 CAZ        29.0377   58.1868   43.7999 C.3         1 B69       0.1121
     21 PBA        29.0244   57.0876   45.0619 P.3         1 B69       0.0795
     22 OAC        27.7182   56.7017   45.5286 O.co2       1 B69      -0.5610
     23 OAD        29.7391   55.8830   44.7204 O.co2       1 B69      -0.5610
     24 OAB        29.7263   57.6262   46.2070 O.co2       1 B69      -0.5610
     25 SBB        28.2065   59.7339   44.2660 S.o2        1 B69      -0.1731
     26 OAG        28.0602   60.7567   42.9271 O.co2       1 B69      -0.4830
     27 OAF        29.1111   60.5380   45.4500 O.co2       1 B69      -0.4830
     28 OAE        26.6690   59.4043   44.8772 O.co2       1 B69      -0.4830
     29 H1         16.2097   57.2751   35.7255 H           1 B69       0.0230
     30 H2         15.7652   55.7268   34.9913 H           1 B69       0.0230
     31 H3         17.2619   56.5485   34.4923 H           1 B69       0.0230
     32 H4         16.6753   55.3867   37.2701 H           1 B69       0.0264
     33 H5         18.1628   56.2423   36.8357 H           1 B69       0.0264
     34 H6         18.8711   54.4735   35.3373 H           1 B69       0.0287
     35 H7         17.2736   53.7236   35.3470 H           1 B69       0.0287
     36 H8         18.6992   52.3313   36.6804 H           1 B69       0.0427
     37 H9         17.5602   53.1103   37.7527 H           1 B69       0.0427
     38 H10        21.0899   53.1418   36.5963 H           1 B69       0.0558
     39 H11        22.9406   53.8707   37.9230 H           1 B69       0.0600
     40 H12        18.4158   54.5997   39.5124 H           1 B69       0.0558
     41 H13        20.2614   55.3352   40.8396 H           1 B69       0.0600
     42 H14        24.0277   53.3224   40.1333 H           1 B69       0.0600
     43 H15        25.8668   54.0313   41.4768 H           1 B69       0.0558
     44 H16        22.1400   57.0504   40.7634 H           1 B69       0.0600
     45 H17        23.9766   57.7433   42.1299 H           1 B69       0.0558
     46 H18        26.9155   55.5606   42.9615 H           1 B69       0.0427
     47 H19        25.9004   56.7878   43.6887 H           1 B69       0.0427
     48 H20        26.5997   58.4677   42.1386 H           1 B69       0.0288
     49 H21        27.0754   57.2799   40.9430 H           1 B69       0.0288
     50 H22        29.0355   58.2946   41.6526 H           1 B69       0.0298
     51 H23        29.0588   56.6562   42.2418 H           1 B69       0.0298
     52 H24        30.0911   58.4531   43.6741 H           1 B69       0.0695
@<TRIPOS>BOND
     1     1     2   1
     2     2     3   1
     3     3     4   1
     4     4     5   1
     5     5     6  ar
     6     5     8  ar
     7     6     7  ar
     8     7    10  ar
     9     8     9  ar
    10     9    10  ar
    11    10    11   1
    12    11    12  ar
    13    11    14  ar
    14    12    13  ar
    15    13    16  ar
    16    14    15  ar
    17    15    16  ar
    18    16    17   1
    19    17    18   1
    20    18    19   1
    21    19    20   1
    22    20    21   1
    23    20    25   1
    24    21    22  ar
    25    21    23  ar
    26    21    24  ar
    27    25    26  ar
    28    25    27  ar
    29    25    28  ar
    30     1    29   1
    31     1    30   1
    32     1    31   1
    33     2    32   1
    34     2    33   1
    35     3    34   1
    36     3    35   1
    37     4    36   1
    38     4    37   1
    39     6    38   1
    40     7    39   1
    41     8    40   1
    42     9    41   1
    43    12    42   1
    44    13    43   1
    45    14    44   1
    46    15    45   1
    47    17    46   1
    48    17    47   1
    49    18    48   1
    50    18    49   1
    51    19    50   1
    52    19    51   1
    53    20    52   1
@<TRIPOS>SUBSTRUCTURE
     1  B69      1

