@<TRIPOS>MOLECULE
2zcr_ligand_059
    52    53
SMALL
GAST_HUCK
****
This file was generated by PARSER (from files_GN.cpp)

@<TRIPOS>ATOM
      1 CAA        16.3485   53.9463   35.9767 C.3         1 B69      -0.0651
      2 CAP        17.7957   54.2277   35.5156 C.3         1 B69      -0.0541
      3 CAQ        18.5335   55.2682   36.4019 C.3         1 B69      -0.0435
      4 CAS        20.0056   55.5194   35.9611 C.3         1 B69      -0.0191
      5 CAV        20.9220   54.4014   36.3092 C.ar        1 B69      -0.0429
      6 CAI        21.3265   53.4499   35.3445 C.ar        1 B69      -0.0600
      7 CAM        22.1901   52.3965   35.6918 C.ar        1 B69      -0.0616
      8 CAH        21.4142   54.2769   37.6301 C.ar        1 B69      -0.0600
      9 CAL        22.2907   53.2352   37.9787 C.ar        1 B69      -0.0616
     10 CAX        22.6712   52.2850   37.0114 C.ar        1 B69      -0.0283
     11 CAY        23.5550   51.2449   37.3457 C.ar        1 B69      -0.0283
     12 CAO        24.9124   51.3292   36.9805 C.ar        1 B69      -0.0616
     13 CAK        25.7880   50.2692   37.2608 C.ar        1 B69      -0.0600
     14 CAN        23.0878   50.0935   38.0082 C.ar        1 B69      -0.0616
     15 CAJ        23.9764   49.0494   38.3295 C.ar        1 B69      -0.0600
     16 CAW        25.3438   49.1242   37.9641 C.ar        1 B69      -0.0429
     17 CAT        26.2995   48.0291   38.3061 C.3         1 B69      -0.0190
     18 CAR        27.4311   48.4525   39.3005 C.3         1 B69      -0.0402
     19 CAU        28.8298   48.7821   38.6879 C.3         1 B69      -0.0165
     20 CAZ        29.7609   47.5859   38.2882 C.3         1 B69       0.1121
     21 PBA        30.3914   46.7285   39.5876 P.3         1 B69       0.0795
     22 OAC        29.3781   46.0387   40.3394 O.co2       1 B69      -0.5610
     23 OAD        31.2943   45.6883   39.1723 O.co2       1 B69      -0.5610
     24 OAB        31.1044   47.5798   40.5104 O.co2       1 B69      -0.5610
     25 SBB        31.1011   48.2206   37.2219 S.o2        1 B69      -0.1731
     26 OAG        30.4606   48.6075   35.7041 O.co2       1 B69      -0.4830
     27 OAF        32.3264   47.0752   36.9869 O.co2       1 B69      -0.4830
     28 OAE        31.7846   49.6076   37.9081 O.co2       1 B69      -0.4830
     29 H1         15.8885   53.2112   35.3124 H           1 B69       0.0230
     30 H2         15.7506   54.8614   35.9515 H           1 B69       0.0230
     31 H3         16.3425   53.5428   36.9906 H           1 B69       0.0230
     32 H4         17.7632   54.5983   34.4881 H           1 B69       0.0264
     33 H5         18.3477   53.2851   35.5232 H           1 B69       0.0264
     34 H6         18.5096   54.9465   37.4486 H           1 B69       0.0287
     35 H7         17.9958   56.2203   36.3419 H           1 B69       0.0287
     36 H8         20.3642   56.4287   36.4502 H           1 B69       0.0427
     37 H9         20.0281   55.7171   34.8861 H           1 B69       0.0427
     38 H10        20.9988   53.5173   34.3813 H           1 B69       0.0558
     39 H11        22.4705   51.7178   34.9752 H           1 B69       0.0600
     40 H12        21.1523   54.9605   38.3434 H           1 B69       0.0558
     41 H13        22.6510   53.1818   38.9361 H           1 B69       0.0600
     42 H14        25.2781   52.1561   36.5030 H           1 B69       0.0600
     43 H15        26.7536   50.3495   36.9487 H           1 B69       0.0558
     44 H16        22.1008   50.0039   38.2597 H           1 B69       0.0600
     45 H17        23.6161   48.2323   38.8287 H           1 B69       0.0558
     46 H18        26.7303   47.6346   37.3837 H           1 B69       0.0427
     47 H19        25.7470   47.2023   38.7649 H           1 B69       0.0427
     48 H20        27.5480   47.6661   40.0479 H           1 B69       0.0288
     49 H21        27.0985   49.3272   39.8695 H           1 B69       0.0288
     50 H22        29.3622   49.4148   39.4066 H           1 B69       0.0298
     51 H23        28.6538   49.4070   37.8092 H           1 B69       0.0298
     52 H24        29.1896   46.8798   37.6786 H           1 B69       0.0695
@<TRIPOS>BOND
     1     1     2   1
     2     2     3   1
     3     3     4   1
     4     4     5   1
     5     5     6  ar
     6     5     8  ar
     7     6     7  ar
     8     7    10  ar
     9     8     9  ar
    10     9    10  ar
    11    10    11   1
    12    11    12  ar
    13    11    14  ar
    14    12    13  ar
    15    13    16  ar
    16    14    15  ar
    17    15    16  ar
    18    16    17   1
    19    17    18   1
    20    18    19   1
    21    19    20   1
    22    20    21   1
    23    20    25   1
    24    21    22  ar
    25    21    23  ar
    26    21    24  ar
    27    25    26  ar
    28    25    27  ar
    29    25    28  ar
    30     1    29   1
    31     1    30   1
    32     1    31   1
    33     2    32   1
    34     2    33   1
    35     3    34   1
    36     3    35   1
    37     4    36   1
    38     4    37   1
    39     6    38   1
    40     7    39   1
    41     8    40   1
    42     9    41   1
    43    12    42   1
    44    13    43   1
    45    14    44   1
    46    15    45   1
    47    17    46   1
    48    17    47   1
    49    18    48   1
    50    18    49   1
    51    19    50   1
    52    19    51   1
    53    20    52   1
@<TRIPOS>SUBSTRUCTURE
     1  B69      1

