@<TRIPOS>MOLECULE
2zcr_ligand_065
    52    53
SMALL
GAST_HUCK
****
This file was generated by PARSER (from files_GN.cpp)

@<TRIPOS>ATOM
      1 CAA        17.4535   52.3372   39.6415 C.3         1 B69      -0.0651
      2 CAP        17.4870   53.7383   38.9873 C.3         1 B69      -0.0541
      3 CAQ        18.7460   54.0295   38.1206 C.3         1 B69      -0.0435
      4 CAS        18.8971   53.1586   36.8270 C.3         1 B69      -0.0191
      5 CAV        20.1882   52.4182   36.7139 C.ar        1 B69      -0.0429
      6 CAI        20.5519   51.4666   37.6948 C.ar        1 B69      -0.0600
      7 CAM        21.7405   50.7244   37.5813 C.ar        1 B69      -0.0616
      8 CAH        21.0555   52.6072   35.6108 C.ar        1 B69      -0.0600
      9 CAL        22.2481   51.8674   35.4954 C.ar        1 B69      -0.0616
     10 CAX        22.6010   50.9211   36.4809 C.ar        1 B69      -0.0283
     11 CAY        23.8012   50.1839   36.3750 C.ar        1 B69      -0.0283
     12 CAO        25.0444   50.8240   36.5620 C.ar        1 B69      -0.0616
     13 CAK        26.2398   50.0927   36.4542 C.ar        1 B69      -0.0600
     14 CAN        23.7700   48.8018   36.0911 C.ar        1 B69      -0.0616
     15 CAJ        24.9694   48.0771   35.9717 C.ar        1 B69      -0.0600
     16 CAW        26.2209   48.7109   36.1495 C.ar        1 B69      -0.0429
     17 CAT        27.4871   47.9397   36.0026 C.3         1 B69      -0.0190
     18 CAR        28.0583   47.4119   37.3490 C.3         1 B69      -0.0402
     19 CAU        28.6440   48.5136   38.2836 C.3         1 B69      -0.0165
     20 CAZ        29.8440   48.0622   39.1814 C.3         1 B69       0.1121
     21 PBA        30.0628   49.0895   40.4880 P.3         1 B69       0.0795
     22 OAC        28.8902   49.1133   41.3253 O.co2       1 B69      -0.5610
     23 OAD        31.1388   48.6669   41.3479 O.co2       1 B69      -0.5610
     24 OAB        30.3211   50.4485   40.0875 O.co2       1 B69      -0.5610
     25 SBB        31.4026   47.9487   38.2394 S.o2        1 B69      -0.1731
     26 OAG        31.7488   49.4501   37.5450 O.co2       1 B69      -0.4830
     27 OAF        31.3202   46.8002   37.0023 O.co2       1 B69      -0.4830
     28 OAE        32.6734   47.4963   39.2579 O.co2       1 B69      -0.4830
     29 H1         16.5713   52.2483   40.2791 H           1 B69       0.0230
     30 H2         18.3426   52.1816   40.2570 H           1 B69       0.0230
     31 H3         17.4043   51.5548   38.8817 H           1 B69       0.0230
     32 H4         17.4474   54.4804   39.7891 H           1 B69       0.0264
     33 H5         16.5909   53.8646   38.3755 H           1 B69       0.0264
     34 H6         19.6317   53.9409   38.7566 H           1 B69       0.0287
     35 H7         18.6908   55.0817   37.8208 H           1 B69       0.0287
     36 H8         18.7614   53.8118   35.9575 H           1 B69       0.0427
     37 H9         18.0924   52.4225   36.7660 H           1 B69       0.0427
     38 H10        19.9571   51.3066   38.5065 H           1 B69       0.0558
     39 H11        21.9807   50.0486   38.3135 H           1 B69       0.0600
     40 H12        20.8242   53.2800   34.8756 H           1 B69       0.0558
     41 H13        22.8476   52.0099   34.6784 H           1 B69       0.0600
     42 H14        25.0885   51.8233   36.7790 H           1 B69       0.0600
     43 H15        27.1250   50.5827   36.5914 H           1 B69       0.0558
     44 H16        22.8775   48.3181   35.9536 H           1 B69       0.0600
     45 H17        24.9223   47.0792   35.7528 H           1 B69       0.0558
     46 H18        28.2373   48.5511   35.4904 H           1 B69       0.0427
     47 H19        27.3155   47.0759   35.3526 H           1 B69       0.0427
     48 H20        28.8304   46.6838   37.1058 H           1 B69       0.0288
     49 H21        27.2741   46.8635   37.8818 H           1 B69       0.0288
     50 H22        27.8138   48.8598   38.9078 H           1 B69       0.0298
     51 H23        28.9691   49.3692   37.6889 H           1 B69       0.0298
     52 H24        29.6212   47.0727   39.5883 H           1 B69       0.0695
@<TRIPOS>BOND
     1     1     2   1
     2     2     3   1
     3     3     4   1
     4     4     5   1
     5     5     6  ar
     6     5     8  ar
     7     6     7  ar
     8     7    10  ar
     9     8     9  ar
    10     9    10  ar
    11    10    11   1
    12    11    12  ar
    13    11    14  ar
    14    12    13  ar
    15    13    16  ar
    16    14    15  ar
    17    15    16  ar
    18    16    17   1
    19    17    18   1
    20    18    19   1
    21    19    20   1
    22    20    21   1
    23    20    25   1
    24    21    22  ar
    25    21    23  ar
    26    21    24  ar
    27    25    26  ar
    28    25    27  ar
    29    25    28  ar
    30     1    29   1
    31     1    30   1
    32     1    31   1
    33     2    32   1
    34     2    33   1
    35     3    34   1
    36     3    35   1
    37     4    36   1
    38     4    37   1
    39     6    38   1
    40     7    39   1
    41     8    40   1
    42     9    41   1
    43    12    42   1
    44    13    43   1
    45    14    44   1
    46    15    45   1
    47    17    46   1
    48    17    47   1
    49    18    48   1
    50    18    49   1
    51    19    50   1
    52    19    51   1
    53    20    52   1
@<TRIPOS>SUBSTRUCTURE
     1  B69      1

