@<TRIPOS>MOLECULE
2zcr_ligand_015
    52    53
SMALL
GAST_HUCK
****
This file was generated by PARSER (from files_GN.cpp)

@<TRIPOS>ATOM
      1 CAA        15.8221   56.7916   36.5149 C.3         1 B69      -0.0651
      2 CAP        16.5438   55.5428   35.9509 C.3         1 B69      -0.0541
      3 CAQ        17.7149   55.8823   34.9862 C.3         1 B69      -0.0435
      4 CAS        18.9917   56.4491   35.6785 C.3         1 B69      -0.0191
      5 CAV        19.8875   55.4096   36.2557 C.ar        1 B69      -0.0429
      6 CAI        20.1064   55.3114   37.6489 C.ar        1 B69      -0.0600
      7 CAM        20.9973   54.3569   38.1740 C.ar        1 B69      -0.0616
      8 CAH        20.5790   54.5217   35.4022 C.ar        1 B69      -0.0600
      9 CAL        21.4458   53.5488   35.9254 C.ar        1 B69      -0.0616
     10 CAX        21.6714   53.4564   37.3192 C.ar        1 B69      -0.0283
     11 CAY        22.5539   52.4709   37.8372 C.ar        1 B69      -0.0283
     12 CAO        23.6865   52.8327   38.6026 C.ar        1 B69      -0.0616
     13 CAK        24.5690   51.8458   39.0855 C.ar        1 B69      -0.0600
     14 CAN        22.3130   51.1006   37.5883 C.ar        1 B69      -0.0616
     15 CAJ        23.1822   50.1188   38.0912 C.ar        1 B69      -0.0600
     16 CAW        24.3287   50.4761   38.8371 C.ar        1 B69      -0.0429
     17 CAT        25.2079   49.4131   39.3996 C.3         1 B69      -0.0190
     18 CAR        25.8442   48.4627   38.3440 C.3         1 B69      -0.0402
     19 CAU        27.0316   49.0908   37.5610 C.3         1 B69      -0.0165
     20 CAZ        27.6600   48.1502   36.4793 C.3         1 B69       0.1121
     21 PBA        29.3327   48.1922   36.3992 P.3         1 B69       0.0795
     22 OAC        29.9211   48.5516   35.1296 O.co2       1 B69      -0.5610
     23 OAD        29.9777   49.0164   37.3973 O.co2       1 B69      -0.5610
     24 OAB        29.8548   46.8704   36.6869 O.co2       1 B69      -0.5610
     25 SBB        26.8721   48.3961   34.8538 S.o2        1 B69      -0.1731
     26 OAG        26.5231   50.0332   34.5904 O.co2       1 B69      -0.4830
     27 OAF        25.4222   47.5291   34.7718 O.co2       1 B69      -0.4830
     28 OAE        27.9078   47.8230   33.6426 O.co2       1 B69      -0.4830
     29 H1         14.9574   56.4770   37.1076 H           1 B69       0.0230
     30 H2         15.4691   57.4260   35.6927 H           1 B69       0.0230
     31 H3         16.4907   57.3700   37.1529 H           1 B69       0.0230
     32 H4         15.8079   54.9478   35.4026 H           1 B69       0.0264
     33 H5         16.9129   54.9291   36.7814 H           1 B69       0.0264
     34 H6         17.3603   56.6123   34.2527 H           1 B69       0.0287
     35 H7         17.9761   54.9807   34.4240 H           1 B69       0.0287
     36 H8         18.6935   57.1775   36.4382 H           1 B69       0.0427
     37 H9         19.5710   57.0023   34.9389 H           1 B69       0.0427
     38 H10        19.6231   55.9406   38.2921 H           1 B69       0.0558
     39 H11        21.1317   54.3103   39.1872 H           1 B69       0.0600
     40 H12        20.4665   54.5875   34.3895 H           1 B69       0.0558
     41 H13        21.9325   52.9221   35.2780 H           1 B69       0.0600
     42 H14        23.8869   53.8179   38.7959 H           1 B69       0.0600
     43 H15        25.3806   52.1384   39.6320 H           1 B69       0.0558
     44 H16        21.4881   50.8078   37.0549 H           1 B69       0.0600
     45 H17        22.9637   49.1384   37.9161 H           1 B69       0.0558
     46 H18        24.6029   48.8126   40.0810 H           1 B69       0.0427
     47 H19        26.0124   49.8488   39.9971 H           1 B69       0.0427
     48 H20        25.0798   48.1120   37.6515 H           1 B69       0.0288
     49 H21        26.2227   47.5806   38.8700 H           1 B69       0.0288
     50 H22        27.7772   49.3456   38.3198 H           1 B69       0.0298
     51 H23        26.7146   50.0306   37.0983 H           1 B69       0.0298
     52 H24        27.4064   47.1215   36.7587 H           1 B69       0.0695
@<TRIPOS>BOND
     1     1     2   1
     2     2     3   1
     3     3     4   1
     4     4     5   1
     5     5     6  ar
     6     5     8  ar
     7     6     7  ar
     8     7    10  ar
     9     8     9  ar
    10     9    10  ar
    11    10    11   1
    12    11    12  ar
    13    11    14  ar
    14    12    13  ar
    15    13    16  ar
    16    14    15  ar
    17    15    16  ar
    18    16    17   1
    19    17    18   1
    20    18    19   1
    21    19    20   1
    22    20    21   1
    23    20    25   1
    24    21    22  ar
    25    21    23  ar
    26    21    24  ar
    27    25    26  ar
    28    25    27  ar
    29    25    28  ar
    30     1    29   1
    31     1    30   1
    32     1    31   1
    33     2    32   1
    34     2    33   1
    35     3    34   1
    36     3    35   1
    37     4    36   1
    38     4    37   1
    39     6    38   1
    40     7    39   1
    41     8    40   1
    42     9    41   1
    43    12    42   1
    44    13    43   1
    45    14    44   1
    46    15    45   1
    47    17    46   1
    48    17    47   1
    49    18    48   1
    50    18    49   1
    51    19    50   1
    52    19    51   1
    53    20    52   1
@<TRIPOS>SUBSTRUCTURE
     1  B69      1

