@<TRIPOS>MOLECULE
2zcr_ligand_008
    52    53
SMALL
GAST_HUCK
****
This file was generated by PARSER (from files_GN.cpp)

@<TRIPOS>ATOM
      1 CAA        13.1962   56.4538   37.3685 C.3         1 B69      -0.0651
      2 CAP        13.8976   55.9908   36.0676 C.3         1 B69      -0.0541
      3 CAQ        15.2942   56.6420   35.8058 C.3         1 B69      -0.0435
      4 CAS        16.3582   56.5097   36.9408 C.3         1 B69      -0.0191
      5 CAV        17.4573   55.5366   36.6659 C.ar        1 B69      -0.0429
      6 CAI        18.8092   55.9667   36.5949 C.ar        1 B69      -0.0600
      7 CAM        19.8495   55.0322   36.4517 C.ar        1 B69      -0.0616
      8 CAH        17.1821   54.1529   36.5681 C.ar        1 B69      -0.0600
      9 CAL        18.2236   53.2235   36.4293 C.ar        1 B69      -0.0616
     10 CAX        19.5743   53.6469   36.4081 C.ar        1 B69      -0.0283
     11 CAY        20.6196   52.6942   36.4146 C.ar        1 B69      -0.0283
     12 CAO        20.7322   51.7863   37.4922 C.ar        1 B69      -0.0616
     13 CAK        21.7561   50.8314   37.5136 C.ar        1 B69      -0.0600
     14 CAN        21.5568   52.6224   35.3577 C.ar        1 B69      -0.0616
     15 CAJ        22.5786   51.6567   35.3808 C.ar        1 B69      -0.0600
     16 CAW        22.6864   50.7427   36.4562 C.ar        1 B69      -0.0429
     17 CAT        23.7736   49.7345   36.4840 C.3         1 B69      -0.0190
     18 CAR        25.1192   50.3422   36.9602 C.3         1 B69      -0.0402
     19 CAU        26.2708   49.3191   37.1934 C.3         1 B69      -0.0165
     20 CAZ        26.3508   48.0537   36.2726 C.3         1 B69       0.1121
     21 PBA        27.5039   46.9636   36.7957 P.3         1 B69       0.0795
     22 OAC        27.3640   46.6786   38.2038 O.co2       1 B69      -0.5610
     23 OAD        27.3762   45.7012   36.1170 O.co2       1 B69      -0.5610
     24 OAB        28.8497   47.4386   36.5928 O.co2       1 B69      -0.5610
     25 SBB        26.5593   48.4246   34.4996 S.o2        1 B69      -0.1731
     26 OAG        26.2981   50.0621   34.1562 O.co2       1 B69      -0.4830
     27 OAF        25.4166   47.5263   33.6346 O.co2       1 B69      -0.4830
     28 OAE        28.1012   48.0009   33.9367 O.co2       1 B69      -0.4830
     29 H1         12.1411   56.1504   37.3397 H           1 B69       0.0230
     30 H2         13.2486   57.5494   37.4633 H           1 B69       0.0230
     31 H3         13.6655   55.9864   38.2412 H           1 B69       0.0230
     32 H4         13.2457   56.2561   35.2288 H           1 B69       0.0264
     33 H5         13.9849   54.9004   36.0771 H           1 B69       0.0264
     34 H6         15.1171   57.7047   35.6061 H           1 B69       0.0287
     35 H7         15.6931   56.2144   34.8788 H           1 B69       0.0287
     36 H8         15.8778   56.2315   37.8829 H           1 B69       0.0427
     37 H9         16.7874   57.5092   37.0991 H           1 B69       0.0427
     38 H10        19.0421   56.9613   36.6729 H           1 B69       0.0558
     39 H11        20.8137   55.3725   36.4410 H           1 B69       0.0600
     40 H12        16.2214   53.8061   36.6336 H           1 B69       0.0558
     41 H13        17.9860   52.2320   36.3877 H           1 B69       0.0600
     42 H14        20.0791   51.8239   38.2794 H           1 B69       0.0600
     43 H15        21.8152   50.1942   38.3081 H           1 B69       0.0558
     44 H16        21.4906   53.2613   34.5595 H           1 B69       0.0600
     45 H17        23.2275   51.6072   34.5950 H           1 B69       0.0558
     46 H18        23.8878   49.3206   35.4786 H           1 B69       0.0427
     47 H19        23.5147   48.9010   37.1456 H           1 B69       0.0427
     48 H20        24.9454   50.8624   37.9076 H           1 B69       0.0288
     49 H21        25.4382   51.1031   36.2506 H           1 B69       0.0288
     50 H22        26.1603   48.9847   38.2300 H           1 B69       0.0298
     51 H23        27.2178   49.8639   37.1332 H           1 B69       0.0298
     52 H24        25.4035   47.5230   36.3639 H           1 B69       0.0695
@<TRIPOS>BOND
     1     1     2   1
     2     2     3   1
     3     3     4   1
     4     4     5   1
     5     5     6  ar
     6     5     8  ar
     7     6     7  ar
     8     7    10  ar
     9     8     9  ar
    10     9    10  ar
    11    10    11   1
    12    11    12  ar
    13    11    14  ar
    14    12    13  ar
    15    13    16  ar
    16    14    15  ar
    17    15    16  ar
    18    16    17   1
    19    17    18   1
    20    18    19   1
    21    19    20   1
    22    20    21   1
    23    20    25   1
    24    21    22  ar
    25    21    23  ar
    26    21    24  ar
    27    25    26  ar
    28    25    27  ar
    29    25    28  ar
    30     1    29   1
    31     1    30   1
    32     1    31   1
    33     2    32   1
    34     2    33   1
    35     3    34   1
    36     3    35   1
    37     4    36   1
    38     4    37   1
    39     6    38   1
    40     7    39   1
    41     8    40   1
    42     9    41   1
    43    12    42   1
    44    13    43   1
    45    14    44   1
    46    15    45   1
    47    17    46   1
    48    17    47   1
    49    18    48   1
    50    18    49   1
    51    19    50   1
    52    19    51   1
    53    20    52   1
@<TRIPOS>SUBSTRUCTURE
     1  B69      1

