@<TRIPOS>MOLECULE
2zcr_ligand_057
    52    53
SMALL
GAST_HUCK
****
This file was generated by PARSER (from files_GN.cpp)

@<TRIPOS>ATOM
      1 CAA        19.8464   56.1149   35.0511 C.3         1 B69      -0.0651
      2 CAP        20.2375   54.9796   36.0194 C.3         1 B69      -0.0541
      3 CAQ        19.6188   55.1332   37.4367 C.3         1 B69      -0.0435
      4 CAS        19.5260   53.8105   38.2518 C.3         1 B69      -0.0191
      5 CAV        20.7142   52.9216   38.0962 C.ar        1 B69      -0.0429
      6 CAI        20.5669   51.5592   37.7403 C.ar        1 B69      -0.0600
      7 CAM        21.6894   50.7450   37.5041 C.ar        1 B69      -0.0616
      8 CAH        22.0211   53.4117   38.3314 C.ar        1 B69      -0.0600
      9 CAL        23.1433   52.5947   38.1173 C.ar        1 B69      -0.0616
     10 CAX        23.0052   51.2611   37.6473 C.ar        1 B69      -0.0283
     11 CAY        24.1520   50.4701   37.3170 C.ar        1 B69      -0.0283
     12 CAO        25.2997   51.0783   36.7528 C.ar        1 B69      -0.0616
     13 CAK        26.4285   50.3226   36.3982 C.ar        1 B69      -0.0600
     14 CAN        24.1694   49.0561   37.4638 C.ar        1 B69      -0.0616
     15 CAJ        25.2974   48.2954   37.0897 C.ar        1 B69      -0.0600
     16 CAW        26.4555   48.9198   36.5709 C.ar        1 B69      -0.0429
     17 CAT        27.6896   48.1494   36.2513 C.3         1 B69      -0.0190
     18 CAR        28.7691   48.2538   37.3711 C.3         1 B69      -0.0402
     19 CAU        28.6836   47.1565   38.4873 C.3         1 B69      -0.0165
     20 CAZ        28.4883   47.6110   39.9708 C.3         1 B69       0.1121
     21 PBA        27.0219   48.3510   40.2893 P.3         1 B69       0.0795
     22 OAC        26.7902   48.4637   41.7066 O.co2       1 B69      -0.5610
     23 OAD        26.9095   49.6732   39.7234 O.co2       1 B69      -0.5610
     24 OAB        25.9332   47.5478   39.7853 O.co2       1 B69      -0.5610
     25 SBB        29.8811   48.5821   40.6177 S.o2        1 B69      -0.1731
     26 OAG        31.2914   48.1753   39.7809 O.co2       1 B69      -0.4830
     27 OAF        30.0980   48.2286   42.2590 O.co2       1 B69      -0.4830
     28 OAE        29.5944   50.2430   40.4596 O.co2       1 B69      -0.4830
     29 H1         20.4461   56.0427   34.1428 H           1 B69       0.0230
     30 H2         20.0208   57.0962   35.5077 H           1 B69       0.0230
     31 H3         18.7896   56.0332   34.7807 H           1 B69       0.0230
     32 H4         21.3315   54.9751   36.1088 H           1 B69       0.0264
     33 H5         19.9191   54.0238   35.5775 H           1 B69       0.0264
     34 H6         18.6026   55.5380   37.3380 H           1 B69       0.0287
     35 H7         20.2069   55.8728   38.0046 H           1 B69       0.0287
     36 H8         18.6150   53.2802   37.9327 H           1 B69       0.0427
     37 H9         19.3985   54.0566   39.3167 H           1 B69       0.0427
     38 H10        19.6369   51.1663   37.5814 H           1 B69       0.0558
     39 H11        21.5388   49.7876   37.1835 H           1 B69       0.0600
     40 H12        22.1584   54.3765   38.6405 H           1 B69       0.0558
     41 H13        24.0710   52.9935   38.2743 H           1 B69       0.0600
     42 H14        25.3213   52.0917   36.5875 H           1 B69       0.0600
     43 H15        27.2340   50.8116   36.0057 H           1 B69       0.0558
     44 H16        23.3687   48.5666   37.8767 H           1 B69       0.0600
     45 H17        25.2808   47.2818   37.2282 H           1 B69       0.0558
     46 H18        28.1078   48.5415   35.3169 H           1 B69       0.0427
     47 H19        27.4470   47.0965   36.0626 H           1 B69       0.0427
     48 H20        28.7256   49.2592   37.8059 H           1 B69       0.0288
     49 H21        29.7469   48.1644   36.8853 H           1 B69       0.0288
     50 H22        29.6200   46.5838   38.4512 H           1 B69       0.0298
     51 H23        27.8968   46.4307   38.2398 H           1 B69       0.0298
     52 H24        28.4891   46.6885   40.5612 H           1 B69       0.0695
@<TRIPOS>BOND
     1     1     2   1
     2     2     3   1
     3     3     4   1
     4     4     5   1
     5     5     6  ar
     6     5     8  ar
     7     6     7  ar
     8     7    10  ar
     9     8     9  ar
    10     9    10  ar
    11    10    11   1
    12    11    12  ar
    13    11    14  ar
    14    12    13  ar
    15    13    16  ar
    16    14    15  ar
    17    15    16  ar
    18    16    17   1
    19    17    18   1
    20    18    19   1
    21    19    20   1
    22    20    21   1
    23    20    25   1
    24    21    22  ar
    25    21    23  ar
    26    21    24  ar
    27    25    26  ar
    28    25    27  ar
    29    25    28  ar
    30     1    29   1
    31     1    30   1
    32     1    31   1
    33     2    32   1
    34     2    33   1
    35     3    34   1
    36     3    35   1
    37     4    36   1
    38     4    37   1
    39     6    38   1
    40     7    39   1
    41     8    40   1
    42     9    41   1
    43    12    42   1
    44    13    43   1
    45    14    44   1
    46    15    45   1
    47    17    46   1
    48    17    47   1
    49    18    48   1
    50    18    49   1
    51    19    50   1
    52    19    51   1
    53    20    52   1
@<TRIPOS>SUBSTRUCTURE
     1  B69      1

