@<TRIPOS>MOLECULE
2zcr_ligand_050
    52    53
SMALL
GAST_HUCK
****
This file was generated by PARSER (from files_GN.cpp)

@<TRIPOS>ATOM
      1 CAA        15.5789   55.7304   35.6476 C.3         1 B69      -0.0651
      2 CAP        17.0839   55.9284   35.9375 C.3         1 B69      -0.0541
      3 CAQ        17.9874   55.2225   34.8890 C.3         1 B69      -0.0435
      4 CAS        19.4910   55.6137   34.9338 C.3         1 B69      -0.0191
      5 CAV        20.3146   54.8520   35.9094 C.ar        1 B69      -0.0429
      6 CAI        21.1532   53.8049   35.4749 C.ar        1 B69      -0.0600
      7 CAM        22.0185   53.1576   36.3703 C.ar        1 B69      -0.0616
      8 CAH        20.3293   55.2016   37.2757 C.ar        1 B69      -0.0600
      9 CAL        21.1745   54.5370   38.1784 C.ar        1 B69      -0.0616
     10 CAX        22.0724   53.5258   37.7403 C.ar        1 B69      -0.0283
     11 CAY        23.0047   52.9066   38.6412 C.ar        1 B69      -0.0283
     12 CAO        23.4186   51.5595   38.4684 C.ar        1 B69      -0.0616
     13 CAK        24.3264   50.9519   39.3513 C.ar        1 B69      -0.0600
     14 CAN        23.5646   53.6138   39.7371 C.ar        1 B69      -0.0616
     15 CAJ        24.4345   52.9889   40.6547 C.ar        1 B69      -0.0600
     16 CAW        24.8067   51.6381   40.4880 C.ar        1 B69      -0.0429
     17 CAT        25.7528   50.9697   41.4278 C.3         1 B69      -0.0190
     18 CAR        25.1948   49.6779   42.0935 C.3         1 B69      -0.0402
     19 CAU        26.2653   48.6602   42.5890 C.3         1 B69      -0.0165
     20 CAZ        27.3683   48.0965   41.6064 C.3         1 B69       0.1121
     21 PBA        28.8774   48.8168   41.7146 P.3         1 B69       0.0795
     22 OAC        29.0265   50.0782   41.0333 O.co2       1 B69      -0.5610
     23 OAD        29.2524   49.0311   43.0929 O.co2       1 B69      -0.5610
     24 OAB        29.9067   47.9509   41.1941 O.co2       1 B69      -0.5610
     25 SBB        26.8846   47.9371   39.8538 S.o2        1 B69      -0.1731
     26 OAG        25.2955   47.3687   39.7424 O.co2       1 B69      -0.4830
     27 OAF        27.9090   46.8304   39.0821 O.co2       1 B69      -0.4830
     28 OAE        27.0149   49.4243   39.0582 O.co2       1 B69      -0.4830
     29 H1         14.9889   56.2402   36.4085 H           1 B69       0.0230
     30 H2         15.3263   54.6692   35.6594 H           1 B69       0.0230
     31 H3         15.3243   56.1473   34.6719 H           1 B69       0.0230
     32 H4         17.3016   55.5310   36.9329 H           1 B69       0.0264
     33 H5         17.3009   57.0011   35.9410 H           1 B69       0.0264
     34 H6         17.6173   55.4808   33.8912 H           1 B69       0.0287
     35 H7         17.8898   54.1382   35.0021 H           1 B69       0.0287
     36 H8         19.5922   56.6825   35.1334 H           1 B69       0.0427
     37 H9         19.8977   55.4563   33.9316 H           1 B69       0.0427
     38 H10        21.1766   53.5277   34.4896 H           1 B69       0.0558
     39 H11        22.6532   52.4480   35.9915 H           1 B69       0.0600
     40 H12        19.7492   55.9672   37.6213 H           1 B69       0.0558
     41 H13        21.1404   54.8100   39.1639 H           1 B69       0.0600
     42 H14        23.0457   50.9918   37.7077 H           1 B69       0.0600
     43 H15        24.6147   49.9916   39.1605 H           1 B69       0.0558
     44 H16        23.3532   54.6048   39.8813 H           1 B69       0.0600
     45 H17        24.8121   53.5454   41.4289 H           1 B69       0.0558
     46 H18        26.0532   51.6555   42.2289 H           1 B69       0.0427
     47 H19        26.6320   50.7335   40.8404 H           1 B69       0.0427
     48 H20        24.5162   49.1525   41.4190 H           1 B69       0.0288
     49 H21        24.5916   49.9808   42.9560 H           1 B69       0.0288
     50 H22        25.6931   47.7992   42.9517 H           1 B69       0.0298
     51 H23        26.7328   49.0932   43.4773 H           1 B69       0.0298
     52 H24        27.5438   47.0703   41.9441 H           1 B69       0.0695
@<TRIPOS>BOND
     1     1     2   1
     2     2     3   1
     3     3     4   1
     4     4     5   1
     5     5     6  ar
     6     5     8  ar
     7     6     7  ar
     8     7    10  ar
     9     8     9  ar
    10     9    10  ar
    11    10    11   1
    12    11    12  ar
    13    11    14  ar
    14    12    13  ar
    15    13    16  ar
    16    14    15  ar
    17    15    16  ar
    18    16    17   1
    19    17    18   1
    20    18    19   1
    21    19    20   1
    22    20    21   1
    23    20    25   1
    24    21    22  ar
    25    21    23  ar
    26    21    24  ar
    27    25    26  ar
    28    25    27  ar
    29    25    28  ar
    30     1    29   1
    31     1    30   1
    32     1    31   1
    33     2    32   1
    34     2    33   1
    35     3    34   1
    36     3    35   1
    37     4    36   1
    38     4    37   1
    39     6    38   1
    40     7    39   1
    41     8    40   1
    42     9    41   1
    43    12    42   1
    44    13    43   1
    45    14    44   1
    46    15    45   1
    47    17    46   1
    48    17    47   1
    49    18    48   1
    50    18    49   1
    51    19    50   1
    52    19    51   1
    53    20    52   1
@<TRIPOS>SUBSTRUCTURE
     1  B69      1

