@<TRIPOS>MOLECULE
2zcr_ligand_070
    52    53
SMALL
GAST_HUCK
****
This file was generated by PARSER (from files_GN.cpp)

@<TRIPOS>ATOM
      1 CAA        15.9449   57.1318   38.5091 C.3         1 B69      -0.0651
      2 CAP        14.9729   56.9793   37.3188 C.3         1 B69      -0.0541
      3 CAQ        14.4784   55.5220   37.0631 C.3         1 B69      -0.0435
      4 CAS        15.0582   54.8277   35.7980 C.3         1 B69      -0.0191
      5 CAV        16.4326   54.2763   35.9621 C.ar        1 B69      -0.0429
      6 CAI        17.5598   54.9491   35.4346 C.ar        1 B69      -0.0600
      7 CAM        18.8525   54.4096   35.5769 C.ar        1 B69      -0.0616
      8 CAH        16.6322   53.0339   36.6108 C.ar        1 B69      -0.0600
      9 CAL        17.9214   52.4819   36.7385 C.ar        1 B69      -0.0616
     10 CAX        19.0426   53.1751   36.2348 C.ar        1 B69      -0.0283
     11 CAY        20.3465   52.6618   36.4170 C.ar        1 B69      -0.0283
     12 CAO        21.0769   52.9909   37.5787 C.ar        1 B69      -0.0616
     13 CAK        22.3958   52.5262   37.7434 C.ar        1 B69      -0.0600
     14 CAN        20.9501   51.8491   35.4361 C.ar        1 B69      -0.0616
     15 CAJ        22.2679   51.3794   35.6091 C.ar        1 B69      -0.0600
     16 CAW        23.0173   51.7070   36.7665 C.ar        1 B69      -0.0429
     17 CAT        24.4453   51.3094   36.9755 C.3         1 B69      -0.0190
     18 CAR        25.0751   50.1335   36.1659 C.3         1 B69      -0.0402
     19 CAU        24.6551   48.6991   36.6302 C.3         1 B69      -0.0165
     20 CAZ        25.7314   47.9263   37.4783 C.3         1 B69       0.1121
     21 PBA        25.6647   46.2666   37.2688 P.3         1 B69       0.0795
     22 OAC        24.3406   45.7449   37.4870 O.co2       1 B69      -0.5610
     23 OAD        26.0476   45.9309   35.9233 O.co2       1 B69      -0.5610
     24 OAB        26.5935   45.5567   38.1112 O.co2       1 B69      -0.5610
     25 SBB        25.6501   48.3605   39.2458 S.o2        1 B69      -0.1731
     26 OAG        26.3555   49.8794   39.4795 O.co2       1 B69      -0.4830
     27 OAF        26.4977   47.2505   40.2002 O.co2       1 B69      -0.4830
     28 OAE        24.0418   48.3906   39.7659 O.co2       1 B69      -0.4830
     29 H1         16.2897   58.1657   38.5700 H           1 B69       0.0230
     30 H2         16.8091   56.4794   38.3824 H           1 B69       0.0230
     31 H3         15.4383   56.8825   39.4434 H           1 B69       0.0230
     32 H4         15.4547   57.3798   36.4231 H           1 B69       0.0264
     33 H5         14.1070   57.6155   37.5266 H           1 B69       0.0264
     34 H6         13.3935   55.5650   36.9275 H           1 B69       0.0287
     35 H7         14.6553   54.8943   37.9413 H           1 B69       0.0287
     36 H8         15.0251   55.5292   34.9611 H           1 B69       0.0427
     37 H9         14.3952   54.0042   35.5211 H           1 B69       0.0427
     38 H10        17.4501   55.8453   34.9540 H           1 B69       0.0558
     39 H11        19.6538   54.9244   35.1980 H           1 B69       0.0600
     40 H12        15.8354   52.5136   36.9855 H           1 B69       0.0558
     41 H13        18.0380   51.5809   37.2134 H           1 B69       0.0600
     42 H14        20.6615   53.5831   38.3074 H           1 B69       0.0600
     43 H15        22.9071   52.8016   38.5869 H           1 B69       0.0558
     44 H16        20.4378   51.6064   34.5851 H           1 B69       0.0600
     45 H17        22.6706   50.8128   34.8621 H           1 B69       0.0558
     46 H18        24.5793   51.0738   38.0319 H           1 B69       0.0427
     47 H19        25.0484   52.1982   36.7805 H           1 B69       0.0427
     48 H20        26.1621   50.2300   36.2427 H           1 B69       0.0288
     49 H21        24.8423   50.2579   35.1033 H           1 B69       0.0288
     50 H22        24.4372   48.1328   35.7190 H           1 B69       0.0298
     51 H23        23.7099   48.7453   37.1815 H           1 B69       0.0298
     52 H24        26.7283   48.2143   37.1380 H           1 B69       0.0695
@<TRIPOS>BOND
     1     1     2   1
     2     2     3   1
     3     3     4   1
     4     4     5   1
     5     5     6  ar
     6     5     8  ar
     7     6     7  ar
     8     7    10  ar
     9     8     9  ar
    10     9    10  ar
    11    10    11   1
    12    11    12  ar
    13    11    14  ar
    14    12    13  ar
    15    13    16  ar
    16    14    15  ar
    17    15    16  ar
    18    16    17   1
    19    17    18   1
    20    18    19   1
    21    19    20   1
    22    20    21   1
    23    20    25   1
    24    21    22  ar
    25    21    23  ar
    26    21    24  ar
    27    25    26  ar
    28    25    27  ar
    29    25    28  ar
    30     1    29   1
    31     1    30   1
    32     1    31   1
    33     2    32   1
    34     2    33   1
    35     3    34   1
    36     3    35   1
    37     4    36   1
    38     4    37   1
    39     6    38   1
    40     7    39   1
    41     8    40   1
    42     9    41   1
    43    12    42   1
    44    13    43   1
    45    14    44   1
    46    15    45   1
    47    17    46   1
    48    17    47   1
    49    18    48   1
    50    18    49   1
    51    19    50   1
    52    19    51   1
    53    20    52   1
@<TRIPOS>SUBSTRUCTURE
     1  B69      1

