@<TRIPOS>MOLECULE
2zcr_ligand_049
    52    53
SMALL
GAST_HUCK
****
This file was generated by PARSER (from files_GN.cpp)

@<TRIPOS>ATOM
      1 CAA        10.0708   59.3171   39.5625 C.3         1 B69      -0.0651
      2 CAP         9.2711   59.0578   38.2660 C.3         1 B69      -0.0541
      3 CAQ         9.7402   59.8873   37.0332 C.3         1 B69      -0.0435
      4 CAS        11.2526   60.2543   36.9595 C.3         1 B69      -0.0191
      5 CAV        12.1877   59.0950   37.0008 C.ar        1 B69      -0.0429
      6 CAI        13.2512   59.0364   37.9244 C.ar        1 B69      -0.0600
      7 CAM        14.1091   57.9233   37.9729 C.ar        1 B69      -0.0616
      8 CAH        12.0228   58.0118   36.1126 C.ar        1 B69      -0.0600
      9 CAL        12.8481   56.8755   36.2063 C.ar        1 B69      -0.0616
     10 CAX        13.9309   56.7875   37.1282 C.ar        1 B69      -0.0283
     11 CAY        14.7945   55.6187   37.2008 C.ar        1 B69      -0.0283
     12 CAO        14.9328   54.7140   36.1083 C.ar        1 B69      -0.0616
     13 CAK        15.7261   53.5569   36.1807 C.ar        1 B69      -0.0600
     14 CAN        15.5520   55.2882   38.3663 C.ar        1 B69      -0.0616
     15 CAJ        16.3900   54.1599   38.4248 C.ar        1 B69      -0.0600
     16 CAW        16.4924   53.2708   37.3327 C.ar        1 B69      -0.0429
     17 CAT        17.3407   52.0470   37.3874 C.3         1 B69      -0.0190
     18 CAR        18.2566   51.8767   36.1368 C.3         1 B69      -0.0402
     19 CAU        19.1974   50.6452   36.2364 C.3         1 B69      -0.0165
     20 CAZ        20.1868   50.4940   35.0207 C.3         1 B69       0.1121
     21 PBA        19.6701   49.4419   33.8117 P.3         1 B69       0.0795
     22 OAC        18.3368   48.9228   34.0007 O.co2       1 B69      -0.5610
     23 OAD        19.6264   50.1159   32.5385 O.co2       1 B69      -0.5610
     24 OAB        20.4941   48.2730   33.6019 O.co2       1 B69      -0.5610
     25 SBB        21.8808   50.1445   35.5872 S.o2        1 B69      -0.1731
     26 OAG        22.6247   51.6085   36.0032 O.co2       1 B69      -0.4830
     27 OAF        22.8267   49.4238   34.3827 O.co2       1 B69      -0.4830
     28 OAE        21.8455   49.1427   36.9466 O.co2       1 B69      -0.4830
     29 H1          9.6007   58.7926   40.3978 H           1 B69       0.0230
     30 H2         10.0976   60.3853   39.7857 H           1 B69       0.0230
     31 H3         11.0933   58.9505   39.4657 H           1 B69       0.0230
     32 H4          8.2199   59.2967   38.4558 H           1 B69       0.0264
     33 H5          9.3221   57.9909   38.0301 H           1 B69       0.0264
     34 H6          9.1658   60.8183   37.0056 H           1 B69       0.0287
     35 H7          9.4727   59.3243   36.1330 H           1 B69       0.0287
     36 H8         11.4696   60.9472   37.7802 H           1 B69       0.0427
     37 H9         11.4336   60.7976   36.0259 H           1 B69       0.0427
     38 H10        13.4082   59.8117   38.5776 H           1 B69       0.0558
     39 H11        14.8771   57.9712   38.6423 H           1 B69       0.0600
     40 H12        11.2777   58.0304   35.4134 H           1 B69       0.0558
     41 H13        12.6152   56.1075   35.5800 H           1 B69       0.0600
     42 H14        14.4641   54.8777   35.2182 H           1 B69       0.0600
     43 H15        15.7537   52.9264   35.3755 H           1 B69       0.0558
     44 H16        15.4998   55.8597   39.2100 H           1 B69       0.0600
     45 H17        16.9196   53.9799   39.2855 H           1 B69       0.0558
     46 H18        16.6786   51.1807   37.4735 H           1 B69       0.0427
     47 H19        17.9747   52.0651   38.2817 H           1 B69       0.0427
     48 H20        18.8648   52.7802   36.0237 H           1 B69       0.0288
     49 H21        17.6375   51.7702   35.2423 H           1 B69       0.0288
     50 H22        18.5834   49.7471   36.3397 H           1 B69       0.0298
     51 H23        19.7541   50.7521   37.1718 H           1 B69       0.0298
     52 H24        20.2718   51.4771   34.5542 H           1 B69       0.0695
@<TRIPOS>BOND
     1     1     2   1
     2     2     3   1
     3     3     4   1
     4     4     5   1
     5     5     6  ar
     6     5     8  ar
     7     6     7  ar
     8     7    10  ar
     9     8     9  ar
    10     9    10  ar
    11    10    11   1
    12    11    12  ar
    13    11    14  ar
    14    12    13  ar
    15    13    16  ar
    16    14    15  ar
    17    15    16  ar
    18    16    17   1
    19    17    18   1
    20    18    19   1
    21    19    20   1
    22    20    21   1
    23    20    25   1
    24    21    22  ar
    25    21    23  ar
    26    21    24  ar
    27    25    26  ar
    28    25    27  ar
    29    25    28  ar
    30     1    29   1
    31     1    30   1
    32     1    31   1
    33     2    32   1
    34     2    33   1
    35     3    34   1
    36     3    35   1
    37     4    36   1
    38     4    37   1
    39     6    38   1
    40     7    39   1
    41     8    40   1
    42     9    41   1
    43    12    42   1
    44    13    43   1
    45    14    44   1
    46    15    45   1
    47    17    46   1
    48    17    47   1
    49    18    48   1
    50    18    49   1
    51    19    50   1
    52    19    51   1
    53    20    52   1
@<TRIPOS>SUBSTRUCTURE
     1  B69      1

