@<TRIPOS>MOLECULE
2zcr_ligand_046
    52    53
SMALL
GAST_HUCK
****
This file was generated by PARSER (from files_GN.cpp)

@<TRIPOS>ATOM
      1 CAA        15.2311   54.6402   39.2882 C.3         1 B69      -0.0651
      2 CAP        16.2623   55.7928   39.3448 C.3         1 B69      -0.0541
      3 CAQ        15.9900   56.9570   38.3383 C.3         1 B69      -0.0435
      4 CAS        16.7652   56.9941   36.9786 C.3         1 B69      -0.0191
      5 CAV        17.5650   55.7917   36.6159 C.ar        1 B69      -0.0429
      6 CAI        18.9437   55.7253   36.9111 C.ar        1 B69      -0.0600
      7 CAM        19.6859   54.5741   36.6190 C.ar        1 B69      -0.0616
      8 CAH        16.9640   54.6916   35.9663 C.ar        1 B69      -0.0600
      9 CAL        17.7165   53.5460   35.6530 C.ar        1 B69      -0.0616
     10 CAX        19.0891   53.4541   35.9815 C.ar        1 B69      -0.0283
     11 CAY        19.8562   52.2858   35.6598 C.ar        1 B69      -0.0283
     12 CAO        21.2374   52.3951   35.3739 C.ar        1 B69      -0.0616
     13 CAK        22.0131   51.2636   35.0761 C.ar        1 B69      -0.0600
     14 CAN        19.2760   50.9955   35.5874 C.ar        1 B69      -0.0616
     15 CAJ        20.0489   49.8644   35.2615 C.ar        1 B69      -0.0600
     16 CAW        21.4375   49.9710   35.0286 C.ar        1 B69      -0.0429
     17 CAT        22.2163   48.7220   34.7678 C.3         1 B69      -0.0190
     18 CAR        23.6089   48.9004   34.1009 C.3         1 B69      -0.0402
     19 CAU        24.4790   47.6114   34.0293 C.3         1 B69      -0.0165
     20 CAZ        25.5678   47.4369   35.1333 C.3         1 B69       0.1121
     21 PBA        24.9557   47.2118   36.6775 P.3         1 B69       0.0795
     22 OAC        23.9733   46.1638   36.6912 O.co2       1 B69      -0.5610
     23 OAD        25.9982   46.8193   37.5892 O.co2       1 B69      -0.5610
     24 OAB        24.3496   48.3985   37.2228 O.co2       1 B69      -0.5610
     25 SBB        26.8705   48.7189   35.0574 S.o2        1 B69      -0.1731
     26 OAG        27.4698   49.0979   36.5939 O.co2       1 B69      -0.4830
     27 OAF        26.3022   50.1564   34.3650 O.co2       1 B69      -0.4830
     28 OAE        28.1462   48.1068   34.1271 O.co2       1 B69      -0.4830
     29 H1         15.5834   53.8113   39.9017 H           1 B69       0.0230
     30 H2         15.0957   54.2842   38.2680 H           1 B69       0.0230
     31 H3         14.2717   54.9815   39.6757 H           1 B69       0.0230
     32 H4         17.2647   55.3801   39.1966 H           1 B69       0.0264
     33 H5         16.2384   56.1988   40.3648 H           1 B69       0.0264
     34 H6         16.2129   57.8913   38.8664 H           1 B69       0.0287
     35 H7         14.9143   56.9892   38.1378 H           1 B69       0.0287
     36 H8         17.4400   57.8530   36.9909 H           1 B69       0.0427
     37 H9         16.0578   57.2062   36.1712 H           1 B69       0.0427
     38 H10        19.4122   56.5148   37.3630 H           1 B69       0.0558
     39 H11        20.6729   54.5591   36.8866 H           1 B69       0.0600
     40 H12        15.9661   54.7123   35.7282 H           1 B69       0.0558
     41 H13        17.2410   52.7788   35.1627 H           1 B69       0.0600
     42 H14        21.7027   53.3073   35.3658 H           1 B69       0.0600
     43 H15        23.0109   51.4101   34.8865 H           1 B69       0.0558
     44 H16        18.2832   50.8572   35.7865 H           1 B69       0.0600
     45 H17        19.5876   48.9528   35.2130 H           1 B69       0.0558
     46 H18        21.6098   48.0668   34.1375 H           1 B69       0.0427
     47 H19        22.3642   48.2162   35.7266 H           1 B69       0.0427
     48 H20        24.1427   49.6735   34.6532 H           1 B69       0.0288
     49 H21        23.4558   49.2732   33.0857 H           1 B69       0.0288
     50 H22        24.9974   47.5953   33.0641 H           1 B69       0.0298
     51 H23        23.8385   46.7235   34.0328 H           1 B69       0.0298
     52 H24        26.0700   46.4983   34.8879 H           1 B69       0.0695
@<TRIPOS>BOND
     1     1     2   1
     2     2     3   1
     3     3     4   1
     4     4     5   1
     5     5     6  ar
     6     5     8  ar
     7     6     7  ar
     8     7    10  ar
     9     8     9  ar
    10     9    10  ar
    11    10    11   1
    12    11    12  ar
    13    11    14  ar
    14    12    13  ar
    15    13    16  ar
    16    14    15  ar
    17    15    16  ar
    18    16    17   1
    19    17    18   1
    20    18    19   1
    21    19    20   1
    22    20    21   1
    23    20    25   1
    24    21    22  ar
    25    21    23  ar
    26    21    24  ar
    27    25    26  ar
    28    25    27  ar
    29    25    28  ar
    30     1    29   1
    31     1    30   1
    32     1    31   1
    33     2    32   1
    34     2    33   1
    35     3    34   1
    36     3    35   1
    37     4    36   1
    38     4    37   1
    39     6    38   1
    40     7    39   1
    41     8    40   1
    42     9    41   1
    43    12    42   1
    44    13    43   1
    45    14    44   1
    46    15    45   1
    47    17    46   1
    48    17    47   1
    49    18    48   1
    50    18    49   1
    51    19    50   1
    52    19    51   1
    53    20    52   1
@<TRIPOS>SUBSTRUCTURE
     1  B69      1

