@<TRIPOS>MOLECULE
2zcr_ligand_067
    52    53
SMALL
GAST_HUCK
****
This file was generated by PARSER (from files_GN.cpp)

@<TRIPOS>ATOM
      1 CAA        25.8694   49.1780   45.5532 C.3         1 B69      -0.0651
      2 CAP        26.0182   49.3827   44.0270 C.3         1 B69      -0.0541
      3 CAQ        25.2548   50.6349   43.4982 C.3         1 B69      -0.0435
      4 CAS        25.8380   51.2645   42.1913 C.3         1 B69      -0.0191
      5 CAV        25.1365   50.9425   40.9120 C.ar        1 B69      -0.0429
      6 CAI        24.7562   49.6210   40.5852 C.ar        1 B69      -0.0600
      7 CAM        24.1573   49.3205   39.3458 C.ar        1 B69      -0.0616
      8 CAH        24.9300   51.9560   39.9401 C.ar        1 B69      -0.0600
      9 CAL        24.3659   51.6535   38.6867 C.ar        1 B69      -0.0616
     10 CAX        23.9693   50.3372   38.3832 C.ar        1 B69      -0.0283
     11 CAY        23.4144   50.0481   37.1175 C.ar        1 B69      -0.0283
     12 CAO        24.2382   49.9544   35.9758 C.ar        1 B69      -0.0616
     13 CAK        23.6775   49.6748   34.7162 C.ar        1 B69      -0.0600
     14 CAN        22.0182   49.8839   36.9805 C.ar        1 B69      -0.0616
     15 CAJ        21.4634   49.5943   35.7203 C.ar        1 B69      -0.0600
     16 CAW        22.2825   49.4696   34.5736 C.ar        1 B69      -0.0429
     17 CAT        21.6794   49.1357   33.2536 C.3         1 B69      -0.0190
     18 CAR        21.0152   47.7158   33.1938 C.3         1 B69      -0.0402
     19 CAU        21.7739   46.6243   32.3669 C.3         1 B69      -0.0165
     20 CAZ        22.5866   45.5128   33.1043 C.3         1 B69       0.1121
     21 PBA        21.7040   44.5201   34.1208 P.3         1 B69       0.0795
     22 OAC        20.3333   44.4387   33.6796 O.co2       1 B69      -0.5610
     23 OAD        22.2008   43.1664   34.1128 O.co2       1 B69      -0.5610
     24 OAB        21.6859   44.9659   35.4925 O.co2       1 B69      -0.5610
     25 SBB        24.0600   46.1528   33.9442 S.o2        1 B69      -0.1731
     26 OAG        23.6493   46.8250   35.4407 O.co2       1 B69      -0.4830
     27 OAF        24.8208   47.3337   33.0120 O.co2       1 B69      -0.4830
     28 OAE        25.1427   44.8779   34.1985 O.co2       1 B69      -0.4830
     29 H1         26.3971   48.2732   45.8605 H           1 B69       0.0230
     30 H2         24.8162   49.0802   45.8230 H           1 B69       0.0230
     31 H3         26.2984   50.0248   46.0915 H           1 B69       0.0230
     32 H4         25.6437   48.4886   43.5232 H           1 B69       0.0264
     33 H5         27.0846   49.4688   43.8108 H           1 B69       0.0264
     34 H6         25.2829   51.4071   44.2711 H           1 B69       0.0287
     35 H7         24.2018   50.3788   43.3485 H           1 B69       0.0287
     36 H8         26.8855   50.9751   42.0767 H           1 B69       0.0427
     37 H9         25.8399   52.3501   42.3340 H           1 B69       0.0427
     38 H10        24.9182   48.8584   41.2449 H           1 B69       0.0558
     39 H11        23.8813   48.3554   39.1454 H           1 B69       0.0600
     40 H12        25.2178   52.9200   40.1233 H           1 B69       0.0558
     41 H13        24.2519   52.4044   37.9985 H           1 B69       0.0600
     42 H14        25.2532   50.0794   36.0527 H           1 B69       0.0600
     43 H15        24.2954   49.5970   33.9040 H           1 B69       0.0558
     44 H16        21.4000   49.9768   37.7917 H           1 B69       0.0600
     45 H17        20.4478   49.4672   35.6478 H           1 B69       0.0558
     46 H18        22.4251   49.2378   32.4623 H           1 B69       0.0427
     47 H19        20.9194   49.8998   33.0514 H           1 B69       0.0427
     48 H20        20.0310   47.8509   32.7278 H           1 B69       0.0288
     49 H21        20.8133   47.3361   34.1962 H           1 B69       0.0288
     50 H22        22.4533   47.1170   31.6672 H           1 B69       0.0298
     51 H23        21.0343   46.1131   31.7379 H           1 B69       0.0298
     52 H24        22.9614   44.8553   32.3153 H           1 B69       0.0695
@<TRIPOS>BOND
     1     1     2   1
     2     2     3   1
     3     3     4   1
     4     4     5   1
     5     5     6  ar
     6     5     8  ar
     7     6     7  ar
     8     7    10  ar
     9     8     9  ar
    10     9    10  ar
    11    10    11   1
    12    11    12  ar
    13    11    14  ar
    14    12    13  ar
    15    13    16  ar
    16    14    15  ar
    17    15    16  ar
    18    16    17   1
    19    17    18   1
    20    18    19   1
    21    19    20   1
    22    20    21   1
    23    20    25   1
    24    21    22  ar
    25    21    23  ar
    26    21    24  ar
    27    25    26  ar
    28    25    27  ar
    29    25    28  ar
    30     1    29   1
    31     1    30   1
    32     1    31   1
    33     2    32   1
    34     2    33   1
    35     3    34   1
    36     3    35   1
    37     4    36   1
    38     4    37   1
    39     6    38   1
    40     7    39   1
    41     8    40   1
    42     9    41   1
    43    12    42   1
    44    13    43   1
    45    14    44   1
    46    15    45   1
    47    17    46   1
    48    17    47   1
    49    18    48   1
    50    18    49   1
    51    19    50   1
    52    19    51   1
    53    20    52   1
@<TRIPOS>SUBSTRUCTURE
     1  B69      1

