@<TRIPOS>MOLECULE
2zcr_ligand_074
    52    53
SMALL
GAST_HUCK
****
This file was generated by PARSER (from files_GN.cpp)

@<TRIPOS>ATOM
      1 CAA        15.8375   51.3760   40.4363 C.3         1 B69      -0.0651
      2 CAP        15.2057   51.7086   39.0657 C.3         1 B69      -0.0541
      3 CAQ        15.3875   53.1844   38.6133 C.3         1 B69      -0.0435
      4 CAS        16.8463   53.6636   38.3675 C.3         1 B69      -0.0191
      5 CAV        17.6658   52.7866   37.4813 C.ar        1 B69      -0.0429
      6 CAI        17.3021   52.5707   36.1318 C.ar        1 B69      -0.0600
      7 CAM        18.0413   51.6918   35.3189 C.ar        1 B69      -0.0616
      8 CAH        18.8164   52.1377   37.9706 C.ar        1 B69      -0.0600
      9 CAL        19.5576   51.2602   37.1551 C.ar        1 B69      -0.0616
     10 CAX        19.1808   51.0037   35.8094 C.ar        1 B69      -0.0283
     11 CAY        19.9240   50.0966   34.9798 C.ar        1 B69      -0.0283
     12 CAO        21.3424   50.0487   35.0243 C.ar        1 B69      -0.0616
     13 CAK        22.0724   49.1621   34.2183 C.ar        1 B69      -0.0600
     14 CAN        19.2777   49.2054   34.0796 C.ar        1 B69      -0.0616
     15 CAJ        20.0117   48.3251   33.2631 C.ar        1 B69      -0.0600
     16 CAW        21.4196   48.2828   33.3277 C.ar        1 B69      -0.0429
     17 CAT        22.2010   47.2334   32.6136 C.3         1 B69      -0.0190
     18 CAR        22.3852   45.9430   33.4875 C.3         1 B69      -0.0402
     19 CAU        21.6069   44.6873   32.9846 C.3         1 B69      -0.0165
     20 CAZ        21.2810   43.5947   34.0520 C.3         1 B69       0.1121
     21 PBA        22.5920   42.9557   34.8736 P.3         1 B69       0.0795
     22 OAC        22.2013   41.8891   35.7637 O.co2       1 B69      -0.5610
     23 OAD        23.5804   42.4315   33.9690 O.co2       1 B69      -0.5610
     24 OAB        23.2346   43.9323   35.7130 O.co2       1 B69      -0.5610
     25 SBB        20.3464   42.2485   33.2691 S.o2        1 B69      -0.1731
     26 OAG        21.3542   41.3696   32.2306 O.co2       1 B69      -0.4830
     27 OAF        19.0475   42.8778   32.3849 O.co2       1 B69      -0.4830
     28 OAE        19.7276   41.2015   34.4496 O.co2       1 B69      -0.4830
     29 H1         15.6605   50.3257   40.6750 H           1 B69       0.0230
     30 H2         15.3881   51.9917   41.2170 H           1 B69       0.0230
     31 H3         16.9122   51.5529   40.4156 H           1 B69       0.0230
     32 H4         14.1322   51.4978   39.1294 H           1 B69       0.0264
     33 H5         15.6197   51.0362   38.3070 H           1 B69       0.0264
     34 H6         14.9323   53.8316   39.3666 H           1 B69       0.0287
     35 H7         14.8213   53.3299   37.6911 H           1 B69       0.0287
     36 H8         17.3317   53.7864   39.3410 H           1 B69       0.0427
     37 H9         16.8067   54.6585   37.9212 H           1 B69       0.0427
     38 H10        16.4859   53.0426   35.7351 H           1 B69       0.0558
     39 H11        17.7387   51.5672   34.3486 H           1 B69       0.0600
     40 H12        19.1320   52.2967   38.9320 H           1 B69       0.0558
     41 H13        20.3667   50.7910   37.5716 H           1 B69       0.0600
     42 H14        21.8637   50.6693   35.6482 H           1 B69       0.0600
     43 H15        23.0933   49.1381   34.3045 H           1 B69       0.0558
     44 H16        18.2560   49.1710   34.0300 H           1 B69       0.0600
     45 H17        19.5065   47.6902   32.6352 H           1 B69       0.0558
     46 H18        23.1836   47.6343   32.3390 H           1 B69       0.0427
     47 H19        21.7168   46.9852   31.6708 H           1 B69       0.0427
     48 H20        22.0945   46.1581   34.5198 H           1 B69       0.0288
     49 H21        23.4515   45.6916   33.5171 H           1 B69       0.0288
     50 H22        22.1713   44.2429   32.1604 H           1 B69       0.0298
     51 H23        20.6542   45.0259   32.5761 H           1 B69       0.0298
     52 H24        20.6149   44.0479   34.7890 H           1 B69       0.0695
@<TRIPOS>BOND
     1     1     2   1
     2     2     3   1
     3     3     4   1
     4     4     5   1
     5     5     6  ar
     6     5     8  ar
     7     6     7  ar
     8     7    10  ar
     9     8     9  ar
    10     9    10  ar
    11    10    11   1
    12    11    12  ar
    13    11    14  ar
    14    12    13  ar
    15    13    16  ar
    16    14    15  ar
    17    15    16  ar
    18    16    17   1
    19    17    18   1
    20    18    19   1
    21    19    20   1
    22    20    21   1
    23    20    25   1
    24    21    22  ar
    25    21    23  ar
    26    21    24  ar
    27    25    26  ar
    28    25    27  ar
    29    25    28  ar
    30     1    29   1
    31     1    30   1
    32     1    31   1
    33     2    32   1
    34     2    33   1
    35     3    34   1
    36     3    35   1
    37     4    36   1
    38     4    37   1
    39     6    38   1
    40     7    39   1
    41     8    40   1
    42     9    41   1
    43    12    42   1
    44    13    43   1
    45    14    44   1
    46    15    45   1
    47    17    46   1
    48    17    47   1
    49    18    48   1
    50    18    49   1
    51    19    50   1
    52    19    51   1
    53    20    52   1
@<TRIPOS>SUBSTRUCTURE
     1  B69      1

