@<TRIPOS>MOLECULE
2zjw_ligand_013
    28    31
SMALL
GAST_HUCK
****
This file was generated by PARSER (from files_GN.cpp)

@<TRIPOS>ATOM
      1 C1         37.6063    0.2627    5.2731 C.ar        1 REF       0.0450
      2 C2         36.7003    1.3365    5.0773 C.ar        1 REF       0.0162
      3 C3         36.3534    2.2168    6.1412 C.ar        1 REF       0.0162
      4 C4         36.9416    1.9969    7.4085 C.ar        1 REF       0.1580
      5 O5         37.8074    0.9434    7.5744 O.3         1 REF      -0.2195
      6 C6         38.1514    0.0816    6.5726 C.2         1 REF       0.2659
      7 C7         35.4434    3.2870    5.9431 C.ar        1 REF       0.0450
      8 C8         35.1331    4.1315    7.0310 C.ar        1 REF      -0.0299
      9 C9         35.7173    3.9112    8.2940 C.ar        1 REF       0.1153
     10 C10        36.6218    2.8467    8.4831 C.ar        1 REF       0.1561
     11 C11        36.1183    1.5646    3.8079 C.ar        1 REF       0.1580
     12 O12        35.2372    2.6050    3.6455 O.3         1 REF      -0.2195
     13 C13        34.8795    3.4555    4.6494 C.2         1 REF       0.2659
     14 C14        37.9247   -0.5711    4.1775 C.ar        1 REF      -0.0299
     15 C15        37.3469   -0.3382    2.9141 C.ar        1 REF       0.1153
     16 C16        36.4440    0.7273    2.7273 C.ar        1 REF       0.1561
     17 O19        37.1581    2.6050    9.7030 O.3         1 REF      -0.3376
     18 O20        35.3651    4.7048    9.3308 O.3         1 REF      -0.3385
     19 O21        34.0132    4.4523    4.3573 O.2         1 REF      -0.3660
     20 O22        35.8744    0.9362    1.5167 O.3         1 REF      -0.3376
     21 O23        37.6173   -1.1824    1.8927 O.3         1 REF      -0.3385
     22 O24        39.0174   -0.9153    6.8623 O.2         1 REF      -0.3660
     23 H1         34.4649    4.8968    6.9166 H           1 REF       0.0486
     24 H2         38.5706   -1.3554    4.2938 H           1 REF       0.0486
     25 H3         36.3844    2.3887   10.2668 H           1 REF       0.2424
     26 H4         35.0158    4.0758   10.0045 H           1 REF       0.2440
     27 H5         35.1039    0.3304    1.5062 H           1 REF       0.2424
     28 H6         36.8367   -1.7754    1.8809 H           1 REF       0.2440
@<TRIPOS>BOND
     1     1     2  ar
     2     1     6   1
     3     1    14  ar
     4     2     3   1
     5     2    11  ar
     6     3     4  ar
     7     3     7  ar
     8     4     5   1
     9     4    10  ar
    10     5     6   1
    11     6    22   2
    12     7     8  ar
    13     7    13   1
    14     8     9  ar
    15     9    10  ar
    16     9    18   1
    17    10    17   1
    18    11    12   1
    19    11    16  ar
    20    12    13   1
    21    13    19   2
    22    14    15  ar
    23    15    16  ar
    24    15    21   1
    25    16    20   1
    26     8    23   1
    27    14    24   1
    28    17    25   1
    29    18    26   1
    30    20    27   1
    31    21    28   1
@<TRIPOS>SUBSTRUCTURE
     1  REF      1

