@<TRIPOS>MOLECULE
2zjw_ligand_038
    28    31
SMALL
GAST_HUCK
****
This file was generated by PARSER (from files_GN.cpp)

@<TRIPOS>ATOM
      1 C1         35.7977   -1.4326    6.1153 C.ar        1 REF       0.0450
      2 C2         36.0870   -0.3714    5.2206 C.ar        1 REF       0.0162
      3 C3         35.3688    0.8577    5.2763 C.ar        1 REF       0.0162
      4 C4         34.3264    0.9829    6.2283 C.ar        1 REF       0.1580
      5 O5         34.0636   -0.0695    7.0712 O.3         1 REF      -0.2195
      6 C6         34.7575   -1.2418    7.0619 C.2         1 REF       0.2659
      7 C7         35.6724    1.9343    4.4072 C.ar        1 REF       0.0450
      8 C8         34.9364    3.1326    4.5213 C.ar        1 REF      -0.0299
      9 C9         33.8704    3.2469    5.4390 C.ar        1 REF       0.1153
     10 C10        33.5554    2.1597    6.2844 C.ar        1 REF       0.1561
     11 C11        37.1056   -0.5097    4.2482 C.ar        1 REF       0.1580
     12 O12        37.3731    0.5449    3.4100 O.3         1 REF      -0.2195
     13 C13        36.7125    1.7408    3.4588 C.2         1 REF       0.2659
     14 C14        36.5539   -2.6214    6.0364 C.ar        1 REF      -0.0299
     15 C15        37.5601   -2.7660    5.0631 C.ar        1 REF       0.1153
     16 C16        37.8257   -1.7194    4.1561 C.ar        1 REF       0.1561
     17 O19        32.4736    2.2141    7.1060 O.3         1 REF      -0.3376
     18 O20        33.1531    4.4074    5.4734 O.3         1 REF      -0.3385
     19 O21        37.0571    2.6964    2.5649 O.2         1 REF      -0.3660
     20 O22        38.7776   -1.9099    3.2015 O.3         1 REF      -0.3376
     21 O23        38.2720   -3.9228    5.0071 O.3         1 REF      -0.3385
     22 O24        34.3990   -2.1961    7.9495 O.2         1 REF      -0.3660
     23 H1         35.1604    3.9382    3.9301 H           1 REF       0.0486
     24 H2         36.3784   -3.3957    6.6832 H           1 REF       0.0486
     25 H3         31.7349    2.4447    6.5089 H           1 REF       0.2424
     26 H4         32.3910    4.2593    6.0739 H           1 REF       0.2440
     27 H5         38.4560   -1.4248    2.4124 H           1 REF       0.2424
     28 H6         37.8778   -4.4178    4.2570 H           1 REF       0.2440
@<TRIPOS>BOND
     1     1     2  ar
     2     1     6   1
     3     1    14  ar
     4     2     3   1
     5     2    11  ar
     6     3     4  ar
     7     3     7  ar
     8     4     5   1
     9     4    10  ar
    10     5     6   1
    11     6    22   2
    12     7     8  ar
    13     7    13   1
    14     8     9  ar
    15     9    10  ar
    16     9    18   1
    17    10    17   1
    18    11    12   1
    19    11    16  ar
    20    12    13   1
    21    13    19   2
    22    14    15  ar
    23    15    16  ar
    24    15    21   1
    25    16    20   1
    26     8    23   1
    27    14    24   1
    28    17    25   1
    29    18    26   1
    30    20    27   1
    31    21    28   1
@<TRIPOS>SUBSTRUCTURE
     1  REF      1

