@<TRIPOS>MOLECULE
2zjw_ligand_024
    28    31
SMALL
GAST_HUCK
****
This file was generated by PARSER (from files_GN.cpp)

@<TRIPOS>ATOM
      1 C1         38.5204   -9.8836    5.1460 C.ar        1 REF       0.0450
      2 C2         38.6144  -11.1267    4.4734 C.ar        1 REF       0.0162
      3 C3         39.3212  -11.2482    3.2425 C.ar        1 REF       0.0162
      4 C4         39.9419  -10.0933    2.7091 C.ar        1 REF       0.1580
      5 O5         39.8421   -8.8976    3.3830 O.3         1 REF      -0.2195
      6 C6         39.1536   -8.7546    4.5549 C.2         1 REF       0.2659
      7 C7         39.4005  -12.4858    2.5559 C.ar        1 REF       0.0450
      8 C8         40.1098  -12.5497    1.3372 C.ar        1 REF      -0.0299
      9 C9         40.7302  -11.4007    0.8123 C.ar        1 REF       0.1153
     10 C10        40.6484  -10.1667    1.4913 C.ar        1 REF       0.1561
     11 C11        37.9973  -12.2797    5.0098 C.ar        1 REF       0.1580
     12 O12        38.0863  -13.4633    4.3217 O.3         1 REF      -0.2195
     13 C13        38.7501  -13.6056    3.1359 C.2         1 REF       0.2659
     14 C14        37.8051   -9.8147    6.3595 C.ar        1 REF      -0.0299
     15 C15        37.1974  -10.9599    6.9012 C.ar        1 REF       0.1153
     16 C16        37.2892  -12.2045    6.2265 C.ar        1 REF       0.1561
     17 O19        41.2587   -9.0462    1.0186 O.3         1 REF      -0.3376
     18 O20        41.4282  -11.4783   -0.3483 O.3         1 REF      -0.3385
     19 O21        38.7531  -14.8255    2.5488 O.2         1 REF      -0.3660
     20 O22        36.6942  -13.3441    6.6889 O.3         1 REF      -0.3376
     21 O23        36.4925  -10.7924    8.0508 O.3         1 REF      -0.3385
     22 O24        39.1126   -7.5235    5.1131 O.2         1 REF      -0.3660
     23 H1         40.1845  -13.4325    0.8264 H           1 REF       0.0486
     24 H2         37.7169   -8.9211    6.8487 H           1 REF       0.0486
     25 H3         41.1656   -9.0749    0.0383 H           1 REF       0.2424
     26 H4         42.3157  -11.7944   -0.0839 H           1 REF       0.2440
     27 H5         36.5729  -13.2352    7.6566 H           1 REF       0.2424
     28 H6         36.5814  -11.6297    8.5582 H           1 REF       0.2440
@<TRIPOS>BOND
     1     1     2  ar
     2     1     6   1
     3     1    14  ar
     4     2     3   1
     5     2    11  ar
     6     3     4  ar
     7     3     7  ar
     8     4     5   1
     9     4    10  ar
    10     5     6   1
    11     6    22   2
    12     7     8  ar
    13     7    13   1
    14     8     9  ar
    15     9    10  ar
    16     9    18   1
    17    10    17   1
    18    11    12   1
    19    11    16  ar
    20    12    13   1
    21    13    19   2
    22    14    15  ar
    23    15    16  ar
    24    15    21   1
    25    16    20   1
    26     8    23   1
    27    14    24   1
    28    17    25   1
    29    18    26   1
    30    20    27   1
    31    21    28   1
@<TRIPOS>SUBSTRUCTURE
     1  REF      1

