@<TRIPOS>MOLECULE
2zjw_ligand_028
    28    31
SMALL
GAST_HUCK
****
This file was generated by PARSER (from files_GN.cpp)

@<TRIPOS>ATOM
      1 C1         36.5088   -3.8876    5.1586 C.ar        1 REF       0.0450
      2 C2         36.9763   -5.1028    4.5941 C.ar        1 REF       0.0162
      3 C3         36.0751   -6.0577    4.0391 C.ar        1 REF       0.0162
      4 C4         34.6940   -5.7536    4.0421 C.ar        1 REF       0.1580
      5 O5         34.2755   -4.5706    4.5964 O.3         1 REF      -0.2195
      6 C6         35.1116   -3.6466    5.1533 C.2         1 REF       0.2659
      7 C7         36.5404   -7.2731    3.4749 C.ar        1 REF       0.0450
      8 C8         35.6023   -8.1759    2.9255 C.ar        1 REF      -0.0299
      9 C9         34.2270   -7.8684    2.9284 C.ar        1 REF       0.1153
     10 C10        33.7716   -6.6479    3.4658 C.ar        1 REF       0.1561
     11 C11        38.3609   -5.3908    4.5633 C.ar        1 REF       0.1580
     12 O12        38.7854   -6.5794    4.0170 O.3         1 REF      -0.2195
     13 C13        37.9416   -7.5134    3.4870 C.2         1 REF       0.2659
     14 C14        37.4400   -2.9673    5.6851 C.ar        1 REF      -0.0299
     15 C15        38.8186   -3.2463    5.6434 C.ar        1 REF       0.1153
     16 C16        39.2771   -4.4599    5.0925 C.ar        1 REF       0.1561
     17 O19        32.4538   -6.3268    3.4002 O.3         1 REF      -0.3376
     18 O20        33.3447   -8.7492    2.3980 O.3         1 REF      -0.3385
     19 O21        38.4813   -8.6473    2.9851 O.2         1 REF      -0.3660
     20 O22        40.6000   -4.7301    5.0990 O.3         1 REF      -0.3376
     21 O23        39.6904   -2.3440    6.1562 O.3         1 REF      -0.3385
     22 O24        34.5767   -2.5103    5.6572 O.2         1 REF      -0.3660
     23 H1         35.9127   -9.0581    2.5102 H           1 REF       0.0486
     24 H2         37.1204   -2.0864    6.0955 H           1 REF       0.0486
     25 H3         32.4325   -5.4479    2.9610 H           1 REF       0.2424
     26 H4         33.0378   -9.2817    3.1626 H           1 REF       0.2440
     27 H5         40.6658   -5.6247    5.4955 H           1 REF       0.2424
     28 H6         40.2257   -2.0486    5.3894 H           1 REF       0.2440
@<TRIPOS>BOND
     1     1     2  ar
     2     1     6   1
     3     1    14  ar
     4     2     3   1
     5     2    11  ar
     6     3     4  ar
     7     3     7  ar
     8     4     5   1
     9     4    10  ar
    10     5     6   1
    11     6    22   2
    12     7     8  ar
    13     7    13   1
    14     8     9  ar
    15     9    10  ar
    16     9    18   1
    17    10    17   1
    18    11    12   1
    19    11    16  ar
    20    12    13   1
    21    13    19   2
    22    14    15  ar
    23    15    16  ar
    24    15    21   1
    25    16    20   1
    26     8    23   1
    27    14    24   1
    28    17    25   1
    29    18    26   1
    30    20    27   1
    31    21    28   1
@<TRIPOS>SUBSTRUCTURE
     1  REF      1

