@<TRIPOS>MOLECULE
2zjw_ligand_015
    28    31
SMALL
GAST_HUCK
****
This file was generated by PARSER (from files_GN.cpp)

@<TRIPOS>ATOM
      1 C1         36.2755    3.2672    6.7165 C.ar        1 REF       0.0450
      2 C2         35.3754    2.2332    6.3513 C.ar        1 REF       0.0162
      3 C3         35.6990    0.8621    6.5598 C.ar        1 REF       0.0162
      4 C4         36.9463    0.5502    7.1510 C.ar        1 REF       0.1580
      5 O5         37.8024    1.5706    7.4865 O.3         1 REF      -0.2195
      6 C6         37.5207    2.8916    7.2894 C.2         1 REF       0.2659
      7 C7         34.7972   -0.1704    6.1954 C.ar        1 REF       0.0450
      8 C8         35.1627   -1.5155    6.4292 C.ar        1 REF      -0.0299
      9 C9         36.4001   -1.8234    7.0295 C.ar        1 REF       0.1153
     10 C10        37.2912   -0.7924    7.3932 C.ar        1 REF       0.1561
     11 C11        34.1234    2.5455    5.7714 C.ar        1 REF       0.1580
     12 O12        33.2788    1.5288    5.4096 O.3         1 REF      -0.2195
     13 C13        33.5609    0.2076    5.6046 C.2         1 REF       0.2659
     14 C14        35.8968    4.6112    6.5019 C.ar        1 REF      -0.0299
     15 C15        34.6389    4.9191    5.9454 C.ar        1 REF       0.1153
     16 C16        33.7536    3.8886    5.5774 C.ar        1 REF       0.1561
     17 O19        38.4770   -1.0835    7.9789 O.3         1 REF      -0.3376
     18 O20        36.7298   -3.1180    7.2543 O.3         1 REF      -0.3385
     19 O21        32.6352   -0.6995    5.2246 O.2         1 REF      -0.3660
     20 O22        32.5475    4.1923    5.0397 O.3         1 REF      -0.3376
     21 O23        34.2780    6.2073    5.7466 O.3         1 REF      -0.3385
     22 O24        38.4511    3.8031    7.6527 O.2         1 REF      -0.3660
     23 H1         34.5310   -2.2756    6.1660 H           1 REF       0.0486
     24 H2         36.5333    5.3731    6.7489 H           1 REF       0.0486
     25 H3         38.2447   -1.3547    8.8926 H           1 REF       0.2424
     26 H4         36.3070   -3.3363    8.1113 H           1 REF       0.2440
     27 H5         31.9216    4.1430    5.7921 H           1 REF       0.2424
     28 H6         33.9523    6.5145    6.6202 H           1 REF       0.2440
@<TRIPOS>BOND
     1     1     2  ar
     2     1     6   1
     3     1    14  ar
     4     2     3   1
     5     2    11  ar
     6     3     4  ar
     7     3     7  ar
     8     4     5   1
     9     4    10  ar
    10     5     6   1
    11     6    22   2
    12     7     8  ar
    13     7    13   1
    14     8     9  ar
    15     9    10  ar
    16     9    18   1
    17    10    17   1
    18    11    12   1
    19    11    16  ar
    20    12    13   1
    21    13    19   2
    22    14    15  ar
    23    15    16  ar
    24    15    21   1
    25    16    20   1
    26     8    23   1
    27    14    24   1
    28    17    25   1
    29    18    26   1
    30    20    27   1
    31    21    28   1
@<TRIPOS>SUBSTRUCTURE
     1  REF      1

