@<TRIPOS>MOLECULE
2zjw_ligand_022
    28    31
SMALL
GAST_HUCK
****
This file was generated by PARSER (from files_GN.cpp)

@<TRIPOS>ATOM
      1 C1         36.1705    4.5067    9.8796 C.ar        1 REF       0.0450
      2 C2         36.3068    3.9838    8.5693 C.ar        1 REF       0.0162
      3 C3         35.2773    4.1580    7.5971 C.ar        1 REF       0.0162
      4 C4         34.1190    4.8899    7.9646 C.ar        1 REF       0.1580
      5 O5         34.0569    5.4437    9.2223 O.3         1 REF      -0.2195
      6 C6         35.0224    5.2827   10.1726 C.2         1 REF       0.2659
      7 C7         35.4023    3.6287    6.2855 C.ar        1 REF       0.0450
      8 C8         34.3341    3.7991    5.3730 C.ar        1 REF      -0.0299
      9 C9         33.1772    4.5045    5.7486 C.ar        1 REF       0.1153
     10 C10        33.0876    5.0865    7.0299 C.ar        1 REF       0.1561
     11 C11        37.4705    3.2760    8.1931 C.ar        1 REF       0.1580
     12 O12        37.5825    2.8002    6.9071 O.3         1 REF      -0.2195
     13 C13        36.6071    2.9472    5.9649 C.2         1 REF       0.2659
     14 C14        37.1934    4.2644   10.8177 C.ar        1 REF      -0.0299
     15 C15        38.3488    3.5455   10.4563 C.ar        1 REF       0.1153
     16 C16        38.4952    3.0672    9.1355 C.ar        1 REF       0.1561
     17 O19        32.0239    5.8588    7.3606 O.3         1 REF      -0.3376
     18 O20        32.1537    4.6267    4.8713 O.3         1 REF      -0.3385
     19 O21        36.8343    2.4168    4.7424 O.2         1 REF      -0.3660
     20 O22        39.6114    2.3847    8.7792 O.3         1 REF      -0.3376
     21 O23        39.3152    3.3089   11.3834 O.3         1 REF      -0.3385
     22 O24        34.9001    5.9770   11.3257 O.2         1 REF      -0.3660
     23 H1         34.3966    3.4130    4.4289 H           1 REF       0.0486
     24 H2         37.1018    4.6104   11.7808 H           1 REF       0.0486
     25 H3         31.7714    6.3343    6.5368 H           1 REF       0.2424
     26 H4         31.3405    4.5179    5.4210 H           1 REF       0.2440
     27 H5         39.7512    2.5984    7.8226 H           1 REF       0.2424
     28 H6         38.9533    3.6236   12.2417 H           1 REF       0.2440
@<TRIPOS>BOND
     1     1     2  ar
     2     1     6   1
     3     1    14  ar
     4     2     3   1
     5     2    11  ar
     6     3     4  ar
     7     3     7  ar
     8     4     5   1
     9     4    10  ar
    10     5     6   1
    11     6    22   2
    12     7     8  ar
    13     7    13   1
    14     8     9  ar
    15     9    10  ar
    16     9    18   1
    17    10    17   1
    18    11    12   1
    19    11    16  ar
    20    12    13   1
    21    13    19   2
    22    14    15  ar
    23    15    16  ar
    24    15    21   1
    25    16    20   1
    26     8    23   1
    27    14    24   1
    28    17    25   1
    29    18    26   1
    30    20    27   1
    31    21    28   1
@<TRIPOS>SUBSTRUCTURE
     1  REF      1

