@<TRIPOS>MOLECULE
2zjw_ligand_018
    28    31
SMALL
GAST_HUCK
****
This file was generated by PARSER (from files_GN.cpp)

@<TRIPOS>ATOM
      1 C1         34.7610    1.4086    6.1649 C.ar        1 REF       0.0450
      2 C2         35.8116    2.2551    6.6017 C.ar        1 REF       0.0162
      3 C3         37.0098    1.7134    7.1494 C.ar        1 REF       0.0162
      4 C4         37.1323    0.3067    7.2486 C.ar        1 REF       0.1580
      5 O5         36.0975   -0.4868    6.8174 O.3         1 REF      -0.2195
      6 C6         34.9436    0.0049    6.2792 C.2         1 REF       0.2659
      7 C7         38.0628    2.5574    7.5820 C.ar        1 REF       0.0450
      8 C8         39.2395    1.9753    8.1015 C.ar        1 REF      -0.0299
      9 C9         39.3624    0.5758    8.2004 C.ar        1 REF       0.1153
     10 C10        38.3102   -0.2590    7.7726 C.ar        1 REF       0.1561
     11 C11        35.6889    3.6628    6.5010 C.ar        1 REF       0.1580
     12 O12        36.7235    4.4555    6.9339 O.3         1 REF      -0.2195
     13 C13        37.8798    3.9599    7.4634 C.2         1 REF       0.2659
     14 C14        33.5866    1.9906    5.6442 C.ar        1 REF      -0.0299
     15 C15        33.4685    3.3909    5.5404 C.ar        1 REF       0.1153
     16 C16        34.5172    4.2288    5.9622 C.ar        1 REF       0.1561
     17 O19        38.4288   -1.6052    7.8628 O.3         1 REF      -0.3376
     18 O20        40.4960    0.0445    8.7181 O.3         1 REF      -0.3385
     19 O21        38.8326    4.8389    7.8418 O.2         1 REF      -0.3660
     20 O22        34.3894    5.5711    5.8305 O.3         1 REF      -0.3376
     21 O23        32.3533    3.9373    5.0022 O.3         1 REF      -0.3385
     22 O24        34.0039   -0.8777    5.8715 O.2         1 REF      -0.3660
     23 H1         40.0160    2.5665    8.4050 H           1 REF       0.0486
     24 H2         32.8153    1.3984    5.3292 H           1 REF       0.0486
     25 H3         38.0313   -1.8269    8.7305 H           1 REF       0.2424
     26 H4         40.8948   -0.4665    7.9819 H           1 REF       0.2440
     27 H5         33.9210    5.8521    6.6454 H           1 REF       0.2424
     28 H6         31.7723    4.1211    5.7678 H           1 REF       0.2440
@<TRIPOS>BOND
     1     1     2  ar
     2     1     6   1
     3     1    14  ar
     4     2     3   1
     5     2    11  ar
     6     3     4  ar
     7     3     7  ar
     8     4     5   1
     9     4    10  ar
    10     5     6   1
    11     6    22   2
    12     7     8  ar
    13     7    13   1
    14     8     9  ar
    15     9    10  ar
    16     9    18   1
    17    10    17   1
    18    11    12   1
    19    11    16  ar
    20    12    13   1
    21    13    19   2
    22    14    15  ar
    23    15    16  ar
    24    15    21   1
    25    16    20   1
    26     8    23   1
    27    14    24   1
    28    17    25   1
    29    18    26   1
    30    20    27   1
    31    21    28   1
@<TRIPOS>SUBSTRUCTURE
     1  REF      1

