@<TRIPOS>MOLECULE
2zjw_ligand_009
    28    31
SMALL
GAST_HUCK
****
This file was generated by PARSER (from files_GN.cpp)

@<TRIPOS>ATOM
      1 C1         36.0364    2.6391    5.5369 C.ar        1 REF       0.0450
      2 C2         36.2281    2.8615    6.9286 C.ar        1 REF       0.0162
      3 C3         37.2133    2.1509    7.6632 C.ar        1 REF       0.0162
      4 C4         38.0081    1.2070    6.9767 C.ar        1 REF       0.1580
      5 O5         37.8074    1.0102    5.6305 O.3         1 REF      -0.2195
      6 C6         36.8685    1.6793    4.9021 C.2         1 REF       0.2659
      7 C7         37.4114    2.3868    9.0509 C.ar        1 REF       0.0450
      8 C8         38.4267    1.6793    9.7231 C.ar        1 REF      -0.0299
      9 C9         39.2177    0.7356    9.0383 C.ar        1 REF       0.1153
     10 C10        39.0055    0.4985    7.6651 C.ar        1 REF       0.1561
     11 C11        35.4328    3.8004    7.6214 C.ar        1 REF       0.1580
     12 O12        35.6377    4.0038    8.9653 O.3         1 REF      -0.2195
     13 C13        36.5774    3.3400    9.6937 C.2         1 REF       0.2659
     14 C14        35.0425    3.3769    4.8585 C.ar        1 REF      -0.0299
     15 C15        34.2405    4.3041    5.5572 C.ar        1 REF       0.1153
     16 C16        34.4251    4.5012    6.9420 C.ar        1 REF       0.1561
     17 O19        39.7861   -0.3793    6.9969 O.3         1 REF      -0.3376
     18 O20        40.1709    0.0500    9.7094 O.3         1 REF      -0.3385
     19 O21        36.6641    3.5940   11.0208 O.2         1 REF      -0.3660
     20 O22        33.6465    5.3661    7.6315 O.3         1 REF      -0.3376
     21 O23        33.3146    5.0303    4.8903 O.3         1 REF      -0.3385
     22 O24        36.7794    1.4055    3.5799 O.2         1 REF      -0.3660
     23 H1         38.6079    1.8558   10.7128 H           1 REF       0.0486
     24 H2         34.8949    3.2457    3.8541 H           1 REF       0.0486
     25 H3         40.6763    0.0160    7.0452 H           1 REF       0.2424
     26 H4         39.6714   -0.6329   10.2023 H           1 REF       0.2440
     27 H5         32.7546    4.9788    7.6039 H           1 REF       0.2424
     28 H6         32.4580    4.6642    5.1848 H           1 REF       0.2440
@<TRIPOS>BOND
     1     1     2  ar
     2     1     6   1
     3     1    14  ar
     4     2     3   1
     5     2    11  ar
     6     3     4  ar
     7     3     7  ar
     8     4     5   1
     9     4    10  ar
    10     5     6   1
    11     6    22   2
    12     7     8  ar
    13     7    13   1
    14     8     9  ar
    15     9    10  ar
    16     9    18   1
    17    10    17   1
    18    11    12   1
    19    11    16  ar
    20    12    13   1
    21    13    19   2
    22    14    15  ar
    23    15    16  ar
    24    15    21   1
    25    16    20   1
    26     8    23   1
    27    14    24   1
    28    17    25   1
    29    18    26   1
    30    20    27   1
    31    21    28   1
@<TRIPOS>SUBSTRUCTURE
     1  REF      1

