@<TRIPOS>MOLECULE
2zjw_ligand_031
    28    31
SMALL
GAST_HUCK
****
This file was generated by PARSER (from files_GN.cpp)

@<TRIPOS>ATOM
      1 C1         34.7837   -5.2866    5.2703 C.ar        1 REF       0.0450
      2 C2         35.5072   -6.5040    5.2362 C.ar        1 REF       0.0162
      3 C3         36.6700   -6.6899    6.0382 C.ar        1 REF       0.0162
      4 C4         37.0881   -5.6295    6.8764 C.ar        1 REF       0.1580
      5 O5         36.3670   -4.4625    6.8883 O.3         1 REF      -0.2195
      6 C6         35.2553   -4.2519    6.1255 C.2         1 REF       0.2659
      7 C7         37.3986   -7.9048    6.0021 C.ar        1 REF       0.0450
      8 C8         38.5414   -8.0435    6.8181 C.ar        1 REF      -0.0299
      9 C9         38.9576   -6.9862    7.6523 C.ar        1 REF       0.1153
     10 C10        38.2339   -5.7764    7.6792 C.ar        1 REF       0.1561
     11 C11        35.0826   -7.5688    4.4055 C.ar        1 REF       0.1580
     12 O12        35.8034   -8.7349    4.4032 O.3         1 REF      -0.2195
     13 C13        36.9340   -8.9332    5.1406 C.2         1 REF       0.2659
     14 C14        33.6363   -5.1583    4.4598 C.ar        1 REF      -0.0299
     15 C15        33.2152   -6.2152    3.6279 C.ar        1 REF       0.1153
     16 C16        33.9320   -7.4256    3.6034 C.ar        1 REF       0.1561
     17 O19        38.6392   -4.7408    8.4548 O.3         1 REF      -0.3376
     18 O20        40.0660   -7.1280    8.4164 O.3         1 REF      -0.3385
     19 O21        37.5534  -10.1309    5.0415 O.2         1 REF      -0.3660
     20 O22        33.5015   -8.4345    2.8018 O.3         1 REF      -0.3376
     21 O23        32.1145   -6.0779    2.8478 O.3         1 REF      -0.3385
     22 O24        34.6465   -3.0490    6.2239 O.2         1 REF      -0.3660
     23 H1         39.0760   -8.9129    6.7993 H           1 REF       0.0486
     24 H2         33.0988   -4.2928    4.4711 H           1 REF       0.0486
     25 H3         38.3587   -4.9776    9.3626 H           1 REF       0.2424
     26 H4         39.7848   -7.7064    9.1548 H           1 REF       0.2440
     27 H5         33.2210   -9.1398    3.4219 H           1 REF       0.2424
     28 H6         32.2455   -5.2256    2.3864 H           1 REF       0.2440
@<TRIPOS>BOND
     1     1     2  ar
     2     1     6   1
     3     1    14  ar
     4     2     3   1
     5     2    11  ar
     6     3     4  ar
     7     3     7  ar
     8     4     5   1
     9     4    10  ar
    10     5     6   1
    11     6    22   2
    12     7     8  ar
    13     7    13   1
    14     8     9  ar
    15     9    10  ar
    16     9    18   1
    17    10    17   1
    18    11    12   1
    19    11    16  ar
    20    12    13   1
    21    13    19   2
    22    14    15  ar
    23    15    16  ar
    24    15    21   1
    25    16    20   1
    26     8    23   1
    27    14    24   1
    28    17    25   1
    29    18    26   1
    30    20    27   1
    31    21    28   1
@<TRIPOS>SUBSTRUCTURE
     1  REF      1

