@<TRIPOS>MOLECULE
2zjw_ligand_014
    28    31
SMALL
GAST_HUCK
****
This file was generated by PARSER (from files_GN.cpp)

@<TRIPOS>ATOM
      1 C1         35.3395    4.7569   10.0411 C.ar        1 REF       0.0450
      2 C2         36.2071    4.0055    9.2071 C.ar        1 REF       0.0162
      3 C3         35.8294    3.6503    7.8763 C.ar        1 REF       0.0162
      4 C4         34.5598    4.0656    7.4064 C.ar        1 REF       0.1580
      5 O5         33.7410    4.7778    8.2422 O.3         1 REF      -0.2195
      6 C6         34.0689    5.1179    9.5212 C.2         1 REF       0.2659
      7 C7         36.6919    2.8956    7.0394 C.ar        1 REF       0.0450
      8 C8         36.2585    2.5495    5.7396 C.ar        1 REF      -0.0299
      9 C9         34.9861    2.9536    5.2790 C.ar        1 REF       0.1153
     10 C10        34.1407    3.7121    6.1097 C.ar        1 REF       0.1561
     11 C11        37.4790    3.5967    9.6780 C.ar        1 REF       0.1580
     12 O12        38.2906    2.8613    8.8466 O.3         1 REF      -0.2195
     13 C13        37.9513    2.5067    7.5725 C.2         1 REF       0.2659
     14 C14        35.7748    5.1219   11.3340 C.ar        1 REF      -0.0299
     15 C15        37.0401    4.7186   11.8041 C.ar        1 REF       0.1153
     16 C16        37.8903    3.9490   10.9801 C.ar        1 REF       0.1561
     17 O19        32.9186    4.0757    5.6359 O.3         1 REF      -0.3376
     18 O20        34.5421    2.6091    4.0378 O.3         1 REF      -0.3385
     19 O21        38.8303    1.7686    6.8572 O.2         1 REF      -0.3660
     20 O22        39.1022    3.5734   11.4585 O.3         1 REF      -0.3376
     21 O23        37.4358    5.0911   13.0476 O.3         1 REF      -0.3385
     22 O24        33.1525    5.7839   10.2565 O.2         1 REF      -0.3660
     23 H1         36.8612    2.0050    5.1170 H           1 REF       0.0486
     24 H2         35.1836    5.7024   11.9327 H           1 REF       0.0486
     25 H3         32.3084    4.0780    6.4099 H           1 REF       0.2424
     26 H4         35.2601    2.0722    3.6276 H           1 REF       0.2440
     27 H5         39.3556    2.7780   10.9390 H           1 REF       0.2424
     28 H6         37.2516    4.3243   13.6354 H           1 REF       0.2440
@<TRIPOS>BOND
     1     1     2  ar
     2     1     6   1
     3     1    14  ar
     4     2     3   1
     5     2    11  ar
     6     3     4  ar
     7     3     7  ar
     8     4     5   1
     9     4    10  ar
    10     5     6   1
    11     6    22   2
    12     7     8  ar
    13     7    13   1
    14     8     9  ar
    15     9    10  ar
    16     9    18   1
    17    10    17   1
    18    11    12   1
    19    11    16  ar
    20    12    13   1
    21    13    19   2
    22    14    15  ar
    23    15    16  ar
    24    15    21   1
    25    16    20   1
    26     8    23   1
    27    14    24   1
    28    17    25   1
    29    18    26   1
    30    20    27   1
    31    21    28   1
@<TRIPOS>SUBSTRUCTURE
     1  REF      1

