@<TRIPOS>MOLECULE
2zjw_ligand_025
    28    31
SMALL
GAST_HUCK
****
This file was generated by PARSER (from files_GN.cpp)

@<TRIPOS>ATOM
      1 C1         36.9300    0.0996    6.6793 C.ar        1 REF       0.0450
      2 C2         36.8845   -1.1833    6.0803 C.ar        1 REF       0.0162
      3 C3         38.0715   -1.9425    5.8774 C.ar        1 REF       0.0162
      4 C4         39.2984   -1.4056    6.3364 C.ar        1 REF       0.1580
      5 O5         39.2984   -0.1799    6.9523 O.3         1 REF      -0.2195
      6 C6         38.1858    0.5854    7.1238 C.2         1 REF       0.2659
      7 C7         38.0417   -3.1989    5.2226 C.ar        1 REF       0.0450
      8 C8         39.2592   -3.8850    5.0073 C.ar        1 REF      -0.0299
      9 C9         40.4784   -3.3400    5.4492 C.ar        1 REF       0.1153
     10 C10        40.5037   -2.1135    6.1315 C.ar        1 REF       0.1561
     11 C11        35.6579   -1.7368    5.6538 C.ar        1 REF       0.1580
     12 O12        35.6486   -2.9653    5.0559 O.3         1 REF      -0.2195
     13 C13        36.7709   -3.7029    4.8171 C.2         1 REF       0.2659
     14 C14        35.7333    0.8333    6.8124 C.ar        1 REF      -0.0299
     15 C15        34.5018    0.2785    6.4080 C.ar        1 REF       0.1153
     16 C16        34.4659   -1.0155    5.8443 C.ar        1 REF       0.1561
     17 O19        41.7014   -1.6499    6.5983 O.3         1 REF      -0.3376
     18 O20        41.6234   -4.0176    5.2286 O.3         1 REF      -0.3385
     19 O21        36.6386   -4.8962    4.1926 O.2         1 REF      -0.3660
     20 O22        33.2850   -1.5789    5.4800 O.3         1 REF      -0.3376
     21 O23        33.3522    0.9942    6.5266 O.3         1 REF      -0.3385
     22 O24        38.3308    1.7870    7.7287 O.2         1 REF      -0.3660
     23 H1         39.2622   -4.7874    4.5265 H           1 REF       0.0486
     24 H2         35.7408    1.7747    7.2110 H           1 REF       0.0486
     25 H3         41.6069   -0.6918    6.7922 H           1 REF       0.2424
     26 H4         42.2141   -3.3864    4.7469 H           1 REF       0.2440
     27 H5         32.6628   -1.4053    6.2200 H           1 REF       0.2424
     28 H6         33.3587    1.3180    7.4521 H           1 REF       0.2440
@<TRIPOS>BOND
     1     1     2  ar
     2     1     6   1
     3     1    14  ar
     4     2     3   1
     5     2    11  ar
     6     3     4  ar
     7     3     7  ar
     8     4     5   1
     9     4    10  ar
    10     5     6   1
    11     6    22   2
    12     7     8  ar
    13     7    13   1
    14     8     9  ar
    15     9    10  ar
    16     9    18   1
    17    10    17   1
    18    11    12   1
    19    11    16  ar
    20    12    13   1
    21    13    19   2
    22    14    15  ar
    23    15    16  ar
    24    15    21   1
    25    16    20   1
    26     8    23   1
    27    14    24   1
    28    17    25   1
    29    18    26   1
    30    20    27   1
    31    21    28   1
@<TRIPOS>SUBSTRUCTURE
     1  REF      1

