@<TRIPOS>MOLECULE
2zjw_ligand_037
    28    31
SMALL
GAST_HUCK
****
This file was generated by PARSER (from files_GN.cpp)

@<TRIPOS>ATOM
      1 C1         35.8848    3.7623    1.9001 C.ar        1 REF       0.0450
      2 C2         36.3370    2.9097    2.9361 C.ar        1 REF       0.0162
      3 C3         35.5194    2.6179    4.0633 C.ar        1 REF       0.0162
      4 C4         34.2561    3.2418    4.1505 C.ar        1 REF       0.1580
      5 O5         33.8295    4.0420    3.1175 O.3         1 REF      -0.2195
      6 C6         34.5744    4.3010    2.0043 C.2         1 REF       0.2659
      7 C7         35.9586    1.7583    5.0991 C.ar        1 REF       0.0450
      8 C8         35.1010    1.4967    6.1940 C.ar        1 REF      -0.0299
      9 C9         33.8353    2.1103    6.2739 C.ar        1 REF       0.1153
     10 C10        33.4245    3.0065    5.2627 C.ar        1 REF       0.1561
     11 C11        37.6462    2.3769    2.9053 C.ar        1 REF       0.1580
     12 O12        38.0489    1.5475    3.9218 O.3         1 REF      -0.2195
     13 C13        37.2651    1.2123    4.9870 C.2         1 REF       0.2659
     14 C14        36.7655    4.0978    0.8469 C.ar        1 REF      -0.0299
     15 C15        38.0862    3.6045    0.8427 C.ar        1 REF       0.1153
     16 C16        38.5261    2.7345    1.8611 C.ar        1 REF       0.1561
     17 O19        32.2148    3.6196    5.2993 O.3         1 REF      -0.3376
     18 O20        33.0179    1.8361    7.3235 O.3         1 REF      -0.3385
     19 O21        37.7927    0.4012    5.9334 O.2         1 REF      -0.3660
     20 O22        39.8101    2.2918    1.8462 O.3         1 REF      -0.3376
     21 O23        38.9233    3.9819   -0.1591 O.3         1 REF      -0.3385
     22 O24        34.0448    5.0974    1.0488 O.2         1 REF      -0.3660
     23 H1         35.3981    0.8692    6.9448 H           1 REF       0.0486
     24 H2         36.4665    4.7226    0.0966 H           1 REF       0.0486
     25 H3         32.0149    3.7552    6.2486 H           1 REF       0.2424
     26 H4         32.7601    0.8944    7.2313 H           1 REF       0.2440
     27 H5         39.8043    1.4147    2.2864 H           1 REF       0.2424
     28 H6         39.7205    4.3424    0.2889 H           1 REF       0.2440
@<TRIPOS>BOND
     1     1     2  ar
     2     1     6   1
     3     1    14  ar
     4     2     3   1
     5     2    11  ar
     6     3     4  ar
     7     3     7  ar
     8     4     5   1
     9     4    10  ar
    10     5     6   1
    11     6    22   2
    12     7     8  ar
    13     7    13   1
    14     8     9  ar
    15     9    10  ar
    16     9    18   1
    17    10    17   1
    18    11    12   1
    19    11    16  ar
    20    12    13   1
    21    13    19   2
    22    14    15  ar
    23    15    16  ar
    24    15    21   1
    25    16    20   1
    26     8    23   1
    27    14    24   1
    28    17    25   1
    29    18    26   1
    30    20    27   1
    31    21    28   1
@<TRIPOS>SUBSTRUCTURE
     1  REF      1

