@<TRIPOS>MOLECULE
2zjw_ligand_004
    28    31
SMALL
GAST_HUCK
****
This file was generated by PARSER (from files_GN.cpp)

@<TRIPOS>ATOM
      1 C1         37.3643    1.8543    8.1300 C.ar        1 REF       0.0450
      2 C2         36.5241    2.6941    7.3551 C.ar        1 REF       0.0162
      3 C3         36.2535    2.4020    5.9831 C.ar        1 REF       0.0162
      4 C4         36.8418    1.2486    5.4071 C.ar        1 REF       0.1580
      5 O5         37.6602    0.4641    6.1808 O.3         1 REF      -0.2195
      6 C6         37.9443    0.7201    7.4902 C.2         1 REF       0.2659
      7 C7         35.4085    3.2423    5.2065 C.ar        1 REF       0.0450
      8 C8         35.1521    2.9065    3.8587 C.ar        1 REF      -0.0299
      9 C9         35.7189    1.7422    3.2981 C.ar        1 REF       0.1153
     10 C10        36.5628    0.9131    4.0683 C.ar        1 REF       0.1561
     11 C11        35.9277    3.8403    7.9304 C.ar        1 REF       0.1580
     12 O12        35.1335    4.6413    7.1503 O.3         1 REF      -0.2195
     13 C13        34.8561    4.3903    5.8381 C.2         1 REF       0.2659
     14 C14        37.5963    2.1838    9.4863 C.ar        1 REF      -0.0299
     15 C15        36.9948    3.3185   10.0632 C.ar        1 REF       0.1153
     16 C16        36.1510    4.1403    9.2867 C.ar        1 REF       0.1561
     17 O19        37.1281   -0.1803    3.5115 O.3         1 REF      -0.3376
     18 O20        35.4262    1.4203    2.0126 O.3         1 REF      -0.3385
     19 O21        34.1021    5.2850    5.1597 O.2         1 REF      -0.3660
     20 O22        35.5598    5.2358    9.8215 O.3         1 REF      -0.3376
     21 O23        37.2404    3.6141   11.3570 O.3         1 REF      -0.3385
     22 O24        38.7782   -0.1211    8.1430 O.2         1 REF      -0.3660
     23 H1         34.5511    3.4946    3.2865 H           1 REF       0.0486
     24 H2         38.2166    1.6061   10.0584 H           1 REF       0.0486
     25 H3         36.3656   -0.7737    3.2595 H           1 REF       0.2424
     26 H4         36.1534    1.7882    1.4880 H           1 REF       0.2440
     27 H5         35.2011    4.9296   10.6977 H           1 REF       0.2424
     28 H6         37.5593    4.5508   11.3578 H           1 REF       0.2440
@<TRIPOS>BOND
     1     1     2  ar
     2     1     6   1
     3     1    14  ar
     4     2     3   1
     5     2    11  ar
     6     3     4  ar
     7     3     7  ar
     8     4     5   1
     9     4    10  ar
    10     5     6   1
    11     6    22   2
    12     7     8  ar
    13     7    13   1
    14     8     9  ar
    15     9    10  ar
    16     9    18   1
    17    10    17   1
    18    11    12   1
    19    11    16  ar
    20    12    13   1
    21    13    19   2
    22    14    15  ar
    23    15    16  ar
    24    15    21   1
    25    16    20   1
    26     8    23   1
    27    14    24   1
    28    17    25   1
    29    18    26   1
    30    20    27   1
    31    21    28   1
@<TRIPOS>SUBSTRUCTURE
     1  REF      1

