@<TRIPOS>MOLECULE
2zjw_ligand_017
    28    31
SMALL
GAST_HUCK
****
This file was generated by PARSER (from files_GN.cpp)

@<TRIPOS>ATOM
      1 C1         36.5820    1.6163    6.1149 C.ar        1 REF       0.0450
      2 C2         37.6729    1.1015    6.8635 C.ar        1 REF       0.0162
      3 C3         38.3999   -0.0431    6.4257 C.ar        1 REF       0.0162
      4 C4         38.0062   -0.6663    5.2164 C.ar        1 REF       0.1580
      5 O5         36.9474   -0.1476    4.5137 O.3         1 REF      -0.2195
      6 C6         36.2331    0.9443    4.9121 C.2         1 REF       0.2659
      7 C7         39.5095   -0.5374    7.1611 C.ar        1 REF       0.0450
      8 C8         40.2177   -1.6515    6.6582 C.ar        1 REF      -0.0299
      9 C9         39.8115   -2.2793    5.4630 C.ar        1 REF       0.1153
     10 C10        38.7055   -1.7917    4.7387 C.ar        1 REF       0.1561
     11 C11        38.0754    1.7295    8.0642 C.ar        1 REF       0.1580
     12 O12        39.1414    1.2245    8.7636 O.3         1 REF      -0.2195
     13 C13        39.8604    0.1357    8.3638 C.2         1 REF       0.2659
     14 C14        35.9025    2.7616    6.5887 C.ar        1 REF      -0.0299
     15 C15        36.3108    3.3866    7.7841 C.ar        1 REF       0.1153
     16 C16        37.3877    2.8653    8.5256 C.ar        1 REF       0.1561
     17 O19        38.3602   -2.4011    3.5731 O.3         1 REF      -0.3376
     18 O20        40.4823   -3.3627    5.0054 O.3         1 REF      -0.3385
     19 O21        40.8918   -0.2581    9.1440 O.2         1 REF      -0.3660
     20 O22        37.7694    3.4518    9.6816 O.3         1 REF      -0.3376
     21 O23        35.6331    4.4622    8.2469 O.3         1 REF      -0.3385
     22 O24        35.2067    1.3482    4.1295 O.2         1 REF      -0.3660
     23 H1         41.0374   -2.0119    7.1512 H           1 REF       0.0486
     24 H2         35.1045    3.1416    6.0711 H           1 REF       0.0486
     25 H3         37.4054   -2.2207    3.4316 H           1 REF       0.2424
     26 H4         41.4019   -3.0525    4.8696 H           1 REF       0.2440
     27 H5         38.3124    4.2129    9.3960 H           1 REF       0.2424
     28 H6         34.8683    4.0600    8.7044 H           1 REF       0.2440
@<TRIPOS>BOND
     1     1     2  ar
     2     1     6   1
     3     1    14  ar
     4     2     3   1
     5     2    11  ar
     6     3     4  ar
     7     3     7  ar
     8     4     5   1
     9     4    10  ar
    10     5     6   1
    11     6    22   2
    12     7     8  ar
    13     7    13   1
    14     8     9  ar
    15     9    10  ar
    16     9    18   1
    17    10    17   1
    18    11    12   1
    19    11    16  ar
    20    12    13   1
    21    13    19   2
    22    14    15  ar
    23    15    16  ar
    24    15    21   1
    25    16    20   1
    26     8    23   1
    27    14    24   1
    28    17    25   1
    29    18    26   1
    30    20    27   1
    31    21    28   1
@<TRIPOS>SUBSTRUCTURE
     1  REF      1

