@<TRIPOS>MOLECULE
2zjw_ligand_002
    28    31
SMALL
GAST_HUCK
****
This file was generated by PARSER (from files_GN.cpp)

@<TRIPOS>ATOM
      1 C1         36.6563   -7.2295    3.1634 C.ar        1 REF       0.0450
      2 C2         36.4435   -8.5232    2.6206 C.ar        1 REF       0.0162
      3 C3         37.5403   -9.3789    2.2931 C.ar        1 REF       0.0162
      4 C4         38.8552   -8.9111    2.5346 C.ar        1 REF       0.1580
      5 O5         39.0263   -7.6529    3.0581 O.3         1 REF      -0.2195
      6 C6         37.9979   -6.8120    3.3733 C.2         1 REF       0.2659
      7 C7         37.3279  -10.6744    1.7556 C.ar        1 REF       0.0450
      8 C8         38.4404  -11.4905    1.4673 C.ar        1 REF      -0.0299
      9 C9         39.7462  -11.0262    1.7172 C.ar        1 REF       0.1153
     10 C10        39.9587   -9.7382    2.2516 C.ar        1 REF       0.1561
     11 C11        35.1314   -9.0030    2.4016 C.ar        1 REF       0.1580
     12 O12        34.9539  -10.2553    1.8704 O.3         1 REF      -0.2195
     13 C13        35.9845  -11.0885    1.5407 C.2         1 REF       0.2659
     14 C14        35.5390   -6.4288    3.4913 C.ar        1 REF      -0.0299
     15 C15        34.2293   -6.9191    3.2916 C.ar        1 REF       0.1153
     16 C16        34.0298   -8.2046    2.7492 C.ar        1 REF       0.1561
     17 O19        41.2095   -9.2770    2.4876 O.3         1 REF      -0.3376
     18 O20        40.8065  -11.8276    1.4441 O.3         1 REF      -0.3385
     19 O21        35.6849  -12.2995    1.0134 O.2         1 REF      -0.3660
     20 O22        32.7747   -8.6659    2.5539 O.3         1 REF      -0.3376
     21 O23        33.1444   -6.1719    3.6365 O.3         1 REF      -0.3385
     22 O24        38.3038   -5.6012    3.8923 O.2         1 REF      -0.3660
     23 H1         38.3104  -12.4306    1.0865 H           1 REF       0.0486
     24 H2         35.6625   -5.4988    3.8880 H           1 REF       0.0486
     25 H3         41.7218  -10.0300    2.8548 H           1 REF       0.2424
     26 H4         40.7528  -12.0064    0.4725 H           1 REF       0.2440
     27 H5         32.4963   -9.0183    3.4245 H           1 REF       0.2424
     28 H6         33.0611   -5.4775    2.9501 H           1 REF       0.2440
@<TRIPOS>BOND
     1     1     2  ar
     2     1     6   1
     3     1    14  ar
     4     2     3   1
     5     2    11  ar
     6     3     4  ar
     7     3     7  ar
     8     4     5   1
     9     4    10  ar
    10     5     6   1
    11     6    22   2
    12     7     8  ar
    13     7    13   1
    14     8     9  ar
    15     9    10  ar
    16     9    18   1
    17    10    17   1
    18    11    12   1
    19    11    16  ar
    20    12    13   1
    21    13    19   2
    22    14    15  ar
    23    15    16  ar
    24    15    21   1
    25    16    20   1
    26     8    23   1
    27    14    24   1
    28    17    25   1
    29    18    26   1
    30    20    27   1
    31    21    28   1
@<TRIPOS>SUBSTRUCTURE
     1  REF      1

