@<TRIPOS>MOLECULE
2zjw_ligand_034
    28    31
SMALL
GAST_HUCK
****
This file was generated by PARSER (from files_GN.cpp)

@<TRIPOS>ATOM
      1 C1         37.2699    3.2632    7.0388 C.ar        1 REF       0.0450
      2 C2         36.9050    2.0435    6.4156 C.ar        1 REF       0.0162
      3 C3         37.6737    0.8565    6.6188 C.ar        1 REF       0.0162
      4 C4         38.8179    0.9234    7.4564 C.ar        1 REF       0.1580
      5 O5         39.1464    2.1239    8.0407 O.3         1 REF      -0.2195
      6 C6         38.4327    3.2721    7.8555 C.2         1 REF       0.2659
      7 C7         37.3238   -0.3632    5.9865 C.ar        1 REF       0.0450
      8 C8         38.1509   -1.4946    6.1732 C.ar        1 REF      -0.0299
      9 C9         39.2971   -1.4184    6.9895 C.ar        1 REF       0.1153
     10 C10        39.6141   -0.2216    7.6597 C.ar        1 REF       0.1561
     11 C11        35.7728    1.9876    5.5684 C.ar        1 REF       0.1580
     12 O12        35.4432    0.7839    4.9953 O.3         1 REF      -0.2195
     13 C13        36.1569   -0.3691    5.1774 C.2         1 REF       0.2659
     14 C14        36.4766    4.4097    6.8248 C.ar        1 REF      -0.0299
     15 C15        35.3540    4.3599    5.9743 C.ar        1 REF       0.1153
     16 C16        35.0114    3.1513    5.3293 C.ar        1 REF       0.1561
     17 O19        40.6971   -0.1768    8.4773 O.3         1 REF      -0.3376
     18 O20        40.0893   -2.5060    7.1375 O.3         1 REF      -0.3385
     19 O21        35.7184   -1.4979    4.5800 O.2         1 REF      -0.3660
     20 O22        33.9469    3.0874    4.4861 O.3         1 REF      -0.3376
     21 O23        34.6012    5.4719    5.7672 O.3         1 REF      -0.3385
     22 O24        38.8746    4.3958    8.4650 O.2         1 REF      -0.3660
     23 H1         37.9293   -2.3801    5.7119 H           1 REF       0.0486
     24 H2         36.7142    5.2911    7.2736 H           1 REF       0.0486
     25 H3         40.3401    0.0033    9.3750 H           1 REF       0.2424
     26 H4         40.6606   -2.5245    6.3404 H           1 REF       0.2440
     27 H5         33.9696    3.9225    3.9659 H           1 REF       0.2424
     28 H6         34.1358    5.6261    6.6220 H           1 REF       0.2440
@<TRIPOS>BOND
     1     1     2  ar
     2     1     6   1
     3     1    14  ar
     4     2     3   1
     5     2    11  ar
     6     3     4  ar
     7     3     7  ar
     8     4     5   1
     9     4    10  ar
    10     5     6   1
    11     6    22   2
    12     7     8  ar
    13     7    13   1
    14     8     9  ar
    15     9    10  ar
    16     9    18   1
    17    10    17   1
    18    11    12   1
    19    11    16  ar
    20    12    13   1
    21    13    19   2
    22    14    15  ar
    23    15    16  ar
    24    15    21   1
    25    16    20   1
    26     8    23   1
    27    14    24   1
    28    17    25   1
    29    18    26   1
    30    20    27   1
    31    21    28   1
@<TRIPOS>SUBSTRUCTURE
     1  REF      1

