@<TRIPOS>MOLECULE
2zjw_ligand_030
    28    31
SMALL
GAST_HUCK
****
This file was generated by PARSER (from files_GN.cpp)

@<TRIPOS>ATOM
      1 C1         35.7240    3.3643    6.1236 C.ar        1 REF       0.0450
      2 C2         36.4084    2.1920    5.7131 C.ar        1 REF       0.0162
      3 C3         36.3463    1.7295    4.3673 C.ar        1 REF       0.0162
      4 C4         35.5810    2.4736    3.4388 C.ar        1 REF       0.1580
      5 O5         34.9359    3.6098    3.8604 O.3         1 REF      -0.2195
      6 C6         34.9804    4.0746    5.1433 C.2         1 REF       0.2659
      7 C7         37.0287    0.5550    3.9586 C.ar        1 REF       0.0450
      8 C8         36.9369    0.1392    2.6117 C.ar        1 REF      -0.0299
      9 C9         36.1788    0.8843    1.6885 C.ar        1 REF       0.1153
     10 C10        35.5000    2.0475    2.0987 C.ar        1 REF       0.1561
     11 C11        37.1727    1.4464    6.6420 C.ar        1 REF       0.1580
     12 O12        37.8230    0.3142    6.2188 O.3         1 REF      -0.2195
     13 C13        37.7795   -0.1488    4.9361 C.2         1 REF       0.2659
     14 C14        35.8233    3.7794    7.4699 C.ar        1 REF      -0.0299
     15 C15        36.5906    3.0402    8.3913 C.ar        1 REF       0.1153
     16 C16        37.2588    1.8680    7.9813 C.ar        1 REF       0.1561
     17 O19        34.7802    2.7606    1.2005 O.3         1 REF      -0.3376
     18 O20        36.1085    0.4860    0.3954 O.3         1 REF      -0.3385
     19 O21        38.4623   -1.2788    4.6462 O.2         1 REF      -0.3660
     20 O22        37.9920    1.1389    8.8601 O.3         1 REF      -0.3376
     21 O23        36.6784    3.4557    9.6777 O.3         1 REF      -0.3385
     22 O24        34.3038    5.2102    5.4304 O.2         1 REF      -0.3660
     23 H1         37.4257   -0.6999    2.2922 H           1 REF       0.0486
     24 H2         35.3413    4.6214    7.7878 H           1 REF       0.0486
     25 H3         33.8477    2.5172    1.3792 H           1 REF       0.2424
     26 H4         35.3837   -0.1744    0.3777 H           1 REF       0.2440
     27 H5         37.3504    0.8384    9.5394 H           1 REF       0.2424
     28 H6         35.9430    2.9929   10.1325 H           1 REF       0.2440
@<TRIPOS>BOND
     1     1     2  ar
     2     1     6   1
     3     1    14  ar
     4     2     3   1
     5     2    11  ar
     6     3     4  ar
     7     3     7  ar
     8     4     5   1
     9     4    10  ar
    10     5     6   1
    11     6    22   2
    12     7     8  ar
    13     7    13   1
    14     8     9  ar
    15     9    10  ar
    16     9    18   1
    17    10    17   1
    18    11    12   1
    19    11    16  ar
    20    12    13   1
    21    13    19   2
    22    14    15  ar
    23    15    16  ar
    24    15    21   1
    25    16    20   1
    26     8    23   1
    27    14    24   1
    28    17    25   1
    29    18    26   1
    30    20    27   1
    31    21    28   1
@<TRIPOS>SUBSTRUCTURE
     1  REF      1

