@<TRIPOS>MOLECULE
2zjw_ligand_012
    28    31
SMALL
GAST_HUCK
****
This file was generated by PARSER (from files_GN.cpp)

@<TRIPOS>ATOM
      1 C1         36.4079    1.4424    2.5372 C.ar        1 REF       0.0450
      2 C2         36.7945    1.1716    3.8743 C.ar        1 REF       0.0162
      3 C3         36.3809    2.0152    4.9469 C.ar        1 REF       0.0162
      4 C4         35.5632    3.1330    4.6524 C.ar        1 REF       0.1580
      5 O5         35.2037    3.3674    3.3476 O.3         1 REF      -0.2195
      6 C6         35.5887    2.5796    2.3010 C.2         1 REF       0.2659
      7 C7         36.7746    1.7465    6.2820 C.ar        1 REF       0.0450
      8 C8         36.3318    2.6039    7.3110 C.ar        1 REF      -0.0299
      9 C9         35.5037    3.7073    7.0205 C.ar        1 REF       0.1153
     10 C10        35.1227    3.9809    5.6887 C.ar        1 REF       0.1561
     11 C11        37.6099    0.0531    4.1717 C.ar        1 REF       0.1580
     12 O12        37.9740   -0.1791    5.4750 O.3         1 REF      -0.2195
     13 C13        37.5953    0.6118    6.5202 C.2         1 REF       0.2659
     14 C14        36.8630    0.5901    1.5069 C.ar        1 REF      -0.0299
     15 C15        37.6905   -0.5112    1.8027 C.ar        1 REF       0.1153
     16 C16        38.0538   -0.7944    3.1364 C.ar        1 REF       0.1561
     17 O19        34.3382    5.0505    5.3845 O.3         1 REF      -0.3376
     18 O20        35.0652    4.4909    8.0371 O.3         1 REF      -0.3385
     19 O21        38.0210    0.2748    7.7586 O.2         1 REF      -0.3660
     20 O22        38.8496   -1.8678    3.3990 O.3         1 REF      -0.3376
     21 O23        38.1726   -1.2675    0.7858 O.3         1 REF      -0.3385
     22 O24        35.1690    2.9207    1.0617 O.2         1 REF      -0.3660
     23 H1         36.6037    2.4268    8.2811 H           1 REF       0.0486
     24 H2         36.6133    0.7774    0.5328 H           1 REF       0.0486
     25 H3         33.5447    4.9800    5.9553 H           1 REF       0.2424
     26 H4         34.7177    3.8483    8.6940 H           1 REF       0.2440
     27 H5         38.8456   -1.9850    4.3709 H           1 REF       0.2424
     28 H6         39.1456   -1.1680    0.8623 H           1 REF       0.2440
@<TRIPOS>BOND
     1     1     2  ar
     2     1     6   1
     3     1    14  ar
     4     2     3   1
     5     2    11  ar
     6     3     4  ar
     7     3     7  ar
     8     4     5   1
     9     4    10  ar
    10     5     6   1
    11     6    22   2
    12     7     8  ar
    13     7    13   1
    14     8     9  ar
    15     9    10  ar
    16     9    18   1
    17    10    17   1
    18    11    12   1
    19    11    16  ar
    20    12    13   1
    21    13    19   2
    22    14    15  ar
    23    15    16  ar
    24    15    21   1
    25    16    20   1
    26     8    23   1
    27    14    24   1
    28    17    25   1
    29    18    26   1
    30    20    27   1
    31    21    28   1
@<TRIPOS>SUBSTRUCTURE
     1  REF      1

