@<TRIPOS>MOLECULE
2zjw_ligand_006
    28    31
SMALL
GAST_HUCK
****
This file was generated by PARSER (from files_GN.cpp)

@<TRIPOS>ATOM
      1 C1         36.2233    2.5041    7.0425 C.ar        1 REF       0.0450
      2 C2         35.7996    2.2023    5.7218 C.ar        1 REF       0.0162
      3 C3         36.4288    1.1761    4.9604 C.ar        1 REF       0.0162
      4 C4         37.4704    0.4315    5.5618 C.ar        1 REF       0.1580
      5 O5         37.8607    0.7477    6.8410 O.3         1 REF      -0.2195
      6 C6         37.2921    1.7399    7.5847 C.2         1 REF       0.2659
      7 C7         36.0037    0.8763    3.6388 C.ar        1 REF       0.0450
      8 C8         36.6382   -0.1685    2.9367 C.ar        1 REF      -0.0299
      9 C9         37.6537   -0.9324    3.5497 C.ar        1 REF       0.1153
     10 C10        38.0750   -0.6270    4.8592 C.ar        1 REF       0.1561
     11 C11        34.7119    2.8982    5.1437 C.ar        1 REF       0.1580
     12 O12        34.3062    2.5604    3.8767 O.3         1 REF      -0.2195
     13 C13        34.9195    1.6197    3.1045 C.2         1 REF       0.2659
     14 C14        35.5524    3.5162    7.7618 C.ar        1 REF      -0.0299
     15 C15        34.4517    4.1880    7.1932 C.ar        1 REF       0.1153
     16 C16        34.0330    3.8871    5.8788 C.ar        1 REF       0.1561
     17 O19        39.0389   -1.3740    5.4497 O.3         1 REF      -0.3376
     18 O20        38.1753   -2.0046    2.9042 O.3         1 REF      -0.3385
     19 O21        34.4107    1.3810    1.8743 O.2         1 REF      -0.3660
     20 O22        32.9985    4.5555    5.3070 O.3         1 REF      -0.3376
     21 O23        33.8227    5.1394    7.9218 O.3         1 REF      -0.3385
     22 O24        37.7575    1.9392    8.8403 O.2         1 REF      -0.3660
     23 H1         36.3386   -0.4090    1.9885 H           1 REF       0.0486
     24 H2         35.8483    3.7558    8.7119 H           1 REF       0.0486
     25 H3         38.5532   -2.0699    5.9402 H           1 REF       0.2424
     26 H4         37.3761   -2.4804    2.5895 H           1 REF       0.2440
     27 H5         32.2050    4.3187    5.8386 H           1 REF       0.2424
     28 H6         32.8737    4.8670    7.9443 H           1 REF       0.2440
@<TRIPOS>BOND
     1     1     2  ar
     2     1     6   1
     3     1    14  ar
     4     2     3   1
     5     2    11  ar
     6     3     4  ar
     7     3     7  ar
     8     4     5   1
     9     4    10  ar
    10     5     6   1
    11     6    22   2
    12     7     8  ar
    13     7    13   1
    14     8     9  ar
    15     9    10  ar
    16     9    18   1
    17    10    17   1
    18    11    12   1
    19    11    16  ar
    20    12    13   1
    21    13    19   2
    22    14    15  ar
    23    15    16  ar
    24    15    21   1
    25    16    20   1
    26     8    23   1
    27    14    24   1
    28    17    25   1
    29    18    26   1
    30    20    27   1
    31    21    28   1
@<TRIPOS>SUBSTRUCTURE
     1  REF      1

