@<TRIPOS>MOLECULE
2zjw_ligand_005
    28    31
SMALL
GAST_HUCK
****
This file was generated by PARSER (from files_GN.cpp)

@<TRIPOS>ATOM
      1 C1         35.3982   -4.3514   12.8449 C.ar        1 REF       0.0450
      2 C2         35.8298   -3.2500   12.0654 C.ar        1 REF       0.0162
      3 C3         36.5164   -3.4485   10.8310 C.ar        1 REF       0.0162
      4 C4         36.7619   -4.7760   10.4092 C.ar        1 REF       0.1580
      5 O5         36.3433   -5.8196   11.1944 O.3         1 REF      -0.2195
      6 C6         35.6794   -5.6590   12.3753 C.2         1 REF       0.2659
      7 C7         36.9478   -2.3503   10.0366 C.ar        1 REF       0.0450
      8 C8         37.6263   -2.6034    8.8223 C.ar        1 REF      -0.0299
      9 C9         37.8676   -3.9285    8.4090 C.ar        1 REF       0.1153
     10 C10        37.4351   -5.0130    9.2006 C.ar        1 REF       0.1561
     11 C11        35.5960   -1.9244   12.4955 C.ar        1 REF       0.1580
     12 O12        36.0389   -0.8802   11.7219 O.3         1 REF      -0.2195
     13 C13        36.6786   -1.0393   10.5261 C.2         1 REF       0.2659
     14 C14        34.7021   -4.1063   14.0435 C.ar        1 REF      -0.0299
     15 C15        34.4296   -2.7902   14.4571 C.ar        1 REF       0.1153
     16 C16        34.8881   -1.6986   13.6920 C.ar        1 REF       0.1561
     17 O19        37.6538   -6.2897    8.8081 O.3         1 REF      -0.3376
     18 O20        38.5120   -4.1588    7.2409 O.3         1 REF      -0.3385
     19 O21        37.0666    0.0702    9.8556 O.2         1 REF      -0.3660
     20 O22        34.5743   -0.4391   14.0824 O.3         1 REF      -0.3376
     21 O23        33.7350   -2.5836   15.5998 O.3         1 REF      -0.3385
     22 O24        35.3292   -6.7667   13.0671 O.2         1 REF      -0.3660
     23 H1         37.9483   -1.8313    8.2406 H           1 REF       0.0486
     24 H2         34.3789   -4.8853   14.6271 H           1 REF       0.0486
     25 H3         38.5955   -6.4565    9.0375 H           1 REF       0.2424
     26 H4         37.7984   -4.1732    6.5679 H           1 REF       0.2440
     27 H5         35.4001   -0.0643   14.4456 H           1 REF       0.2424
     28 H6         32.8464   -2.2996   15.2893 H           1 REF       0.2440
@<TRIPOS>BOND
     1     1     2  ar
     2     1     6   1
     3     1    14  ar
     4     2     3   1
     5     2    11  ar
     6     3     4  ar
     7     3     7  ar
     8     4     5   1
     9     4    10  ar
    10     5     6   1
    11     6    22   2
    12     7     8  ar
    13     7    13   1
    14     8     9  ar
    15     9    10  ar
    16     9    18   1
    17    10    17   1
    18    11    12   1
    19    11    16  ar
    20    12    13   1
    21    13    19   2
    22    14    15  ar
    23    15    16  ar
    24    15    21   1
    25    16    20   1
    26     8    23   1
    27    14    24   1
    28    17    25   1
    29    18    26   1
    30    20    27   1
    31    21    28   1
@<TRIPOS>SUBSTRUCTURE
     1  REF      1

