@<TRIPOS>MOLECULE
2zwz_ligand_003
    30    30
SMALL
GAST_HUCK
****
This file was generated by PARSER (from files_GN.cpp)

@<TRIPOS>ATOM
      1 OAE        -0.2665   28.0385   22.6599 O.3         1 ZWZ      -0.3833
      2 CAK        -0.7396   27.8182   23.9904 C.3         1 ZWZ       0.1308
      3 CAJ        -2.0935   27.0624   23.9585 C.3         1 ZWZ       0.1175
      4 OAD        -3.0760   27.8743   23.3177 O.3         1 ZWZ      -0.3862
      5 CAI        -2.5849   26.7171   25.3989 C.3         1 ZWZ       0.1256
      6 OAC        -2.9664   27.9235   26.0697 O.3         1 ZWZ      -0.3835
      7 CAH        -1.4800   25.9382   26.1858 C.3         1 ZWZ       0.0041
      8 CAA        -1.8661   25.6322   27.6565 C.3         1 ZWZ      -0.0191
      9 NAG        -0.2095   26.6982   26.1814 N.4         1 ZWZ       0.2387
     10 CAL         0.3145   27.0330   24.8311 C.3         1 ZWZ       0.0474
     11 CAF         1.6898   27.7590   24.9488 C.3         1 ZWZ       0.0111
     12 NAB         1.6376   29.2337   24.9212 N.4         1 ZWZ       0.2226
     13 H1         -0.2945   27.1552   22.2189 H           1 ZWZ       0.2102
     14 H2         -0.9054   28.7984   24.4534 H           1 ZWZ       0.0679
     15 H3         -1.9882   26.1455   23.3671 H           1 ZWZ       0.0649
     16 H4         -2.6438   28.2138   22.5032 H           1 ZWZ       0.2100
     17 H5         -3.4824   26.0911   25.3135 H           1 ZWZ       0.0677
     18 H6         -3.1335   27.6649   26.9947 H           1 ZWZ       0.2102
     19 H7         -1.3318   24.9764   25.6885 H           1 ZWZ       0.0874
     20 H8         -1.1175   24.9767   28.1038 H           1 ZWZ       0.0285
     21 H9         -2.8435   25.1376   27.6951 H           1 ZWZ       0.0285
     22 H10        -1.9177   26.5536   28.2507 H           1 ZWZ       0.0285
     23 H11         0.4753   26.0988   26.6454 H           1 ZWZ       0.2023
     24 H12        -0.3168   27.5524   26.7326 H           1 ZWZ       0.2023
     25 H13         0.5113   26.0926   24.3136 H           1 ZWZ       0.0931
     26 H14         2.3327   27.4585   24.1156 H           1 ZWZ       0.0870
     27 H15         2.1882   27.4698   25.8771 H           1 ZWZ       0.0870
     28 H16         2.5687   29.6067   25.1187 H           1 ZWZ       0.1996
     29 H17         0.9776   29.5892   25.6218 H           1 ZWZ       0.1996
     30 H18         1.3477   29.5427   23.9850 H           1 ZWZ       0.1996
@<TRIPOS>BOND
     1     1     2   1
     2     2     3   1
     3     2    10   1
     4     3     4   1
     5     3     5   1
     6     5     6   1
     7     5     7   1
     8     7     8   1
     9     7     9   1
    10     9    10   1
    11    10    11   1
    12    11    12   1
    13     1    13   1
    14     2    14   1
    15     3    15   1
    16     4    16   1
    17     5    17   1
    18     6    18   1
    19     7    19   1
    20     8    20   1
    21     8    21   1
    22     8    22   1
    23     9    23   1
    24     9    24   1
    25    10    25   1
    26    11    26   1
    27    11    27   1
    28    12    28   1
    29    12    29   1
    30    12    30   1
@<TRIPOS>SUBSTRUCTURE
     1  ZWZ      2

