@<TRIPOS>MOLECULE
2zwz_ligand_005
    30    30
SMALL
GAST_HUCK
****
This file was generated by PARSER (from files_GN.cpp)

@<TRIPOS>ATOM
      1 OAE        -1.5520   24.5817   26.5949 O.3         1 ZWZ      -0.3833
      2 CAK        -2.0640   25.9087   26.7063 C.3         1 ZWZ       0.1308
      3 CAJ        -3.1111   26.1294   25.5767 C.3         1 ZWZ       0.1175
      4 OAD        -2.4935   26.0265   24.2911 O.3         1 ZWZ      -0.3862
      5 CAI        -3.8183   27.5072   25.7005 C.3         1 ZWZ       0.1256
      6 OAC        -2.8891   28.5372   25.3687 O.3         1 ZWZ      -0.3835
      7 CAH        -4.4073   27.6970   27.1292 C.3         1 ZWZ       0.0041
      8 CAA        -5.0424   29.0932   27.3490 C.3         1 ZWZ      -0.0191
      9 NAG        -3.3521   27.4788   28.1472 N.4         1 ZWZ       0.2387
     10 CAL        -2.6954   26.1432   28.1141 C.3         1 ZWZ       0.0474
     11 CAF        -1.6616   26.1017   29.2736 C.3         1 ZWZ       0.0111
     12 NAB        -0.9287   24.8340   29.3744 N.4         1 ZWZ       0.2226
     13 H1         -0.9417   24.6096   25.8229 H           1 ZWZ       0.2102
     14 H2         -1.2353   26.6088   26.5708 H           1 ZWZ       0.0679
     15 H3         -3.8705   25.3399   25.6380 H           1 ZWZ       0.0649
     16 H4         -2.2730   25.0878   24.1777 H           1 ZWZ       0.2100
     17 H5         -4.6268   27.5460   24.9714 H           1 ZWZ       0.0677
     18 H6         -2.1968   28.5330   26.0718 H           1 ZWZ       0.2102
     19 H7         -5.2003   26.9548   27.2834 H           1 ZWZ       0.0874
     20 H8         -5.5240   29.1296   28.3268 H           1 ZWZ       0.0285
     21 H9         -5.7941   29.2977   26.5860 H           1 ZWZ       0.0285
     22 H10        -4.2803   29.8760   27.3112 H           1 ZWZ       0.0285
     23 H11        -3.7622   27.6208   29.0750 H           1 ZWZ       0.2023
     24 H12        -2.6307   28.1883   27.9982 H           1 ZWZ       0.2023
     25 H13        -3.4515   25.3773   28.3020 H           1 ZWZ       0.0931
     26 H14        -2.1828   26.2625   30.2210 H           1 ZWZ       0.0870
     27 H15        -0.9330   26.9060   29.1538 H           1 ZWZ       0.0870
     28 H16        -0.3368   24.8507   30.2003 H           1 ZWZ       0.1996
     29 H17        -0.3482   24.7025   28.5440 H           1 ZWZ       0.1996
     30 H18        -1.5936   24.0589   29.4496 H           1 ZWZ       0.1996
@<TRIPOS>BOND
     1     1     2   1
     2     2     3   1
     3     2    10   1
     4     3     4   1
     5     3     5   1
     6     5     6   1
     7     5     7   1
     8     7     8   1
     9     7     9   1
    10     9    10   1
    11    10    11   1
    12    11    12   1
    13     1    13   1
    14     2    14   1
    15     3    15   1
    16     4    16   1
    17     5    17   1
    18     6    18   1
    19     7    19   1
    20     8    20   1
    21     8    21   1
    22     8    22   1
    23     9    23   1
    24     9    24   1
    25    10    25   1
    26    11    26   1
    27    11    27   1
    28    12    28   1
    29    12    29   1
    30    12    30   1
@<TRIPOS>SUBSTRUCTURE
     1  ZWZ      2

