@<TRIPOS>MOLECULE
2zx6_ligand_003
    48    50
SMALL
GAST_HUCK
****
This file was generated by PARSER (from files_GN.cpp)

@<TRIPOS>ATOM
      1 CAS        -2.8672   26.3213   31.3812 C.ar        1 ZX6      -0.0194
      2 CAI        -2.9601   27.7190   31.2295 C.ar        1 ZX6      -0.0746
      3 CAG        -3.6943   28.4641   32.1796 C.ar        1 ZX6      -0.0792
      4 CAF        -4.2973   27.8177   33.2849 C.ar        1 ZX6      -0.0767
      5 CAH        -4.1729   26.4218   33.4463 C.ar        1 ZX6      -0.0443
      6 CAR        -3.4509   25.6927   32.4824 C.ar        1 ZX6       0.0606
      7 NAO        -3.1416   24.3862   32.4392 N.pl3       1 ZX6      -0.2884
      8 CAJ        -2.3993   24.1503   31.3450 C.2         1 ZX6       0.0192
      9 CAQ        -2.1946   25.3444   30.6543 C.2         1 ZX6      -0.0275
     10 CAL        -1.3474   25.5531   29.4650 C.3         1 ZX6       0.0536
     11 CAP        -2.0731   25.7902   28.2319 C.2         1 ZX6       0.1813
     12 OAB        -3.1888   26.3176   28.2677 O.2         1 ZX6      -0.3955
     13 NAM        -1.4596   25.5631   27.0700 N.am        1 ZX6      -0.2806
     14 CAK        -1.9260   25.8980   25.7582 C.3         1 ZX6       0.0762
     15 CAU        -1.3180   27.2305   25.1922 C.3         1 ZX6       0.0273
     16 NAN         0.0027   27.5374   25.8227 N.4         1 ZX6       0.2364
     17 CAT         0.7943   28.6553   25.2451 C.3         1 ZX6       0.0040
     18 CAA         2.1413   28.8325   25.9901 C.3         1 ZX6      -0.0191
     19 CAV         0.9968   28.4500   23.7202 C.3         1 ZX6       0.1256
     20 OAC         1.8179   27.2920   23.5127 O.3         1 ZX6      -0.3835
     21 CAX        -0.3854   28.3343   23.0295 C.3         1 ZX6       0.1174
     22 OAE        -0.1945   28.1134   21.6347 O.3         1 ZX6      -0.3862
     23 CAW        -1.2449   27.1881   23.6255 C.3         1 ZX6       0.1278
     24 OAD        -2.5743   27.2120   23.0669 O.3         1 ZX6      -0.3835
     25 H1         -2.5268   28.1895   30.4318 H           1 ZX6       0.0540
     26 H2         -3.7721   29.4799   32.0774 H           1 ZX6       0.0510
     27 H3         -4.8173   28.3701   33.9714 H           1 ZX6       0.0530
     28 H4         -4.6097   25.9504   34.2441 H           1 ZX6       0.0541
     29 H5         -3.4007   23.7230   33.1010 H           1 ZX6       0.2218
     30 H6         -2.0054   23.2429   31.0966 H           1 ZX6       0.0803
     31 H7         -0.6998   24.6796   29.3520 H           1 ZX6       0.0583
     32 H8         -0.6849   26.3996   29.6523 H           1 ZX6       0.0583
     33 H9         -0.5619   25.1739   27.1225 H           1 ZX6       0.1853
     34 H10        -3.0282   25.9488   25.7505 H           1 ZX6       0.0577
     35 H11        -1.6263   25.0542   25.1166 H           1 ZX6       0.0577
     36 H12        -1.9877   28.0419   25.4804 H           1 ZX6       0.0897
     37 H13         0.5627   26.6844   25.8283 H           1 ZX6       0.2021
     38 H14        -0.2131   27.8039   26.7849 H           1 ZX6       0.2021
     39 H15         0.2161   29.5751   25.3976 H           1 ZX6       0.0874
     40 H16         2.7068   29.6444   25.5375 H           1 ZX6       0.0285
     41 H17         2.7343   27.9225   25.9407 H           1 ZX6       0.0285
     42 H18         1.9647   29.0786   27.0356 H           1 ZX6       0.0285
     43 H19         1.5172   29.3242   23.3183 H           1 ZX6       0.0677
     44 H20         1.8415   27.1570   22.5455 H           1 ZX6       0.2102
     45 H21        -0.9101   29.2793   23.1379 H           1 ZX6       0.0649
     46 H22        -1.0512   28.3596   21.2271 H           1 ZX6       0.2100
     47 H23        -0.7602   26.2512   23.3109 H           1 ZX6       0.0678
     48 H24        -2.5792   27.8881   22.3492 H           1 ZX6       0.2102
@<TRIPOS>BOND
     1     1     2  ar
     2     1     6  ar
     3     1     9   1
     4     2     3  ar
     5     3     4  ar
     6     4     5  ar
     7     5     6  ar
     8     6     7   1
     9     7     8   1
    10     8     9   2
    11     9    10   1
    12    10    11   1
    13    11    12   2
    14    11    13  am
    15    13    14   1
    16    14    15   1
    17    15    16   1
    18    15    23   1
    19    16    17   1
    20    17    18   1
    21    17    19   1
    22    19    20   1
    23    19    21   1
    24    21    22   1
    25    21    23   1
    26    23    24   1
    27     2    25   1
    28     3    26   1
    29     4    27   1
    30     5    28   1
    31     7    29   1
    32     8    30   1
    33    10    31   1
    34    10    32   1
    35    13    33   1
    36    14    34   1
    37    14    35   1
    38    15    36   1
    39    16    37   1
    40    16    38   1
    41    17    39   1
    42    18    40   1
    43    18    41   1
    44    18    42   1
    45    19    43   1
    46    20    44   1
    47    21    45   1
    48    22    46   1
    49    23    47   1
    50    24    48   1
@<TRIPOS>SUBSTRUCTURE
     1  ZX6      1

