@<TRIPOS>MOLECULE
2zx6_ligand_001
    48    50
SMALL
GAST_HUCK
****
This file was generated by PARSER (from files_GN.cpp)

@<TRIPOS>ATOM
      1 CAS         0.7555   25.4316   31.8454 C.ar        1 ZX6      -0.0194
      2 CAI         1.3629   26.4299   32.6247 C.ar        1 ZX6      -0.0746
      3 CAG         2.4018   26.0707   33.5078 C.ar        1 ZX6      -0.0792
      4 CAF         2.8192   24.7250   33.6060 C.ar        1 ZX6      -0.0767
      5 CAH         2.1959   23.7251   32.8360 C.ar        1 ZX6      -0.0443
      6 CAR         1.1680   24.1015   31.9555 C.ar        1 ZX6       0.0606
      7 NAO         0.4521   23.3549   31.1073 N.pl3       1 ZX6      -0.2884
      8 CAJ        -0.4031   24.1491   30.4494 C.2         1 ZX6       0.0192
      9 CAQ        -0.2414   25.4766   30.8676 C.2         1 ZX6      -0.0275
     10 CAL        -0.8988   26.7174   30.3677 C.3         1 ZX6       0.0536
     11 CAP        -1.7282   26.5869   29.1738 C.2         1 ZX6       0.1813
     12 OAB        -2.8203   27.1404   29.1441 O.2         1 ZX6      -0.3955
     13 NAM        -1.2800   25.9027   28.1280 N.am        1 ZX6      -0.2806
     14 CAK        -1.9798   25.6159   26.9286 C.3         1 ZX6       0.0762
     15 CAU        -1.9190   26.7647   25.8853 C.3         1 ZX6       0.0273
     16 NAN        -0.5750   27.3971   25.8501 N.4         1 ZX6       0.2364
     17 CAT        -0.3751   28.4574   24.8266 C.3         1 ZX6       0.0040
     18 CAA         1.0774   28.9838   24.9211 C.3         1 ZX6      -0.0191
     19 CAV        -0.7374   27.9459   23.3997 C.3         1 ZX6       0.1256
     20 OAC         0.2224   26.9868   22.9548 O.3         1 ZX6      -0.3835
     21 CAX        -2.1672   27.3294   23.3937 C.3         1 ZX6       0.1174
     22 OAE        -2.4723   26.7715   22.1180 O.3         1 ZX6      -0.3862
     23 CAW        -2.3113   26.2330   24.4779 C.3         1 ZX6       0.1278
     24 OAD        -3.6537   25.7483   24.5135 O.3         1 ZX6      -0.3835
     25 H1          1.0658   27.4045   32.5528 H           1 ZX6       0.0540
     26 H2          2.8574   26.7865   34.0776 H           1 ZX6       0.0510
     27 H3          3.5819   24.4743   34.2397 H           1 ZX6       0.0530
     28 H4          2.4951   22.7521   32.8977 H           1 ZX6       0.0541
     29 H5          0.5314   22.3956   30.9761 H           1 ZX6       0.2218
     30 H6         -1.0447   23.8047   29.7417 H           1 ZX6       0.0803
     31 H7         -0.1277   27.4422   30.1318 H           1 ZX6       0.0583
     32 H8         -1.4861   27.1266   31.1925 H           1 ZX6       0.0583
     33 H9         -0.4370   25.4331   28.2274 H           1 ZX6       0.1853
     34 H10        -3.0214   25.3476   27.1455 H           1 ZX6       0.0577
     35 H11        -1.5063   24.7192   26.5181 H           1 ZX6       0.0577
     36 H12        -2.6392   27.5309   26.1928 H           1 ZX6       0.0897
     37 H13         0.1319   26.6703   25.7359 H           1 ZX6       0.2021
     38 H14        -0.4519   27.8676   26.7545 H           1 ZX6       0.2021
     39 H15        -1.0392   29.2928   25.0651 H           1 ZX6       0.0874
     40 H16         1.2665   29.7188   24.1349 H           1 ZX6       0.0285
     41 H17         1.7925   28.1655   24.8141 H           1 ZX6       0.0285
     42 H18         1.2414   29.4635   25.8892 H           1 ZX6       0.0285
     43 H19        -0.7249   28.7907   22.7045 H           1 ZX6       0.0677
     44 H20        -0.1385   26.6183   22.1235 H           1 ZX6       0.2102
     45 H21        -2.8958   28.1184   23.5871 H           1 ZX6       0.0649
     46 H22        -2.4012   27.5197   21.4912 H           1 ZX6       0.2100
     47 H23        -1.6417   25.4045   24.2173 H           1 ZX6       0.0678
     48 H24        -3.6073   24.8342   24.1658 H           1 ZX6       0.2102
@<TRIPOS>BOND
     1     1     2  ar
     2     1     6  ar
     3     1     9   1
     4     2     3  ar
     5     3     4  ar
     6     4     5  ar
     7     5     6  ar
     8     6     7   1
     9     7     8   1
    10     8     9   2
    11     9    10   1
    12    10    11   1
    13    11    12   2
    14    11    13  am
    15    13    14   1
    16    14    15   1
    17    15    16   1
    18    15    23   1
    19    16    17   1
    20    17    18   1
    21    17    19   1
    22    19    20   1
    23    19    21   1
    24    21    22   1
    25    21    23   1
    26    23    24   1
    27     2    25   1
    28     3    26   1
    29     4    27   1
    30     5    28   1
    31     7    29   1
    32     8    30   1
    33    10    31   1
    34    10    32   1
    35    13    33   1
    36    14    34   1
    37    14    35   1
    38    15    36   1
    39    16    37   1
    40    16    38   1
    41    17    39   1
    42    18    40   1
    43    18    41   1
    44    18    42   1
    45    19    43   1
    46    20    44   1
    47    21    45   1
    48    22    46   1
    49    23    47   1
    50    24    48   1
@<TRIPOS>SUBSTRUCTURE
     1  ZX6      1

