@<TRIPOS>MOLECULE
2zxd_ligand_008
    30    30
SMALL
GAST_HUCK
****
This file was generated by PARSER (from files_GN.cpp)

@<TRIPOS>ATOM
      1 CAA        -4.7206   27.2319   25.7144 C.3         1 ZXD      -0.0575
      2 CAH        -3.5551   27.7096   26.6297 C.3         1 ZXD      -0.0011
      3 CAB        -3.7507   27.1032   28.0543 C.3         1 ZXD      -0.0575
      4 CAL        -2.1188   27.4092   26.0542 C.3         1 ZXD       0.0089
      5 NAG        -1.0940   28.1056   26.8850 N.4         1 ZXD       0.2331
      6 CAF         0.3110   27.8411   26.5051 C.3         1 ZXD      -0.0041
      7 CAI         0.5761   28.2379   25.0300 C.3         1 ZXD       0.1231
      8 OAC         1.9002   27.8455   24.6696 O.3         1 ZXD      -0.3838
      9 CAJ        -0.4566   27.5639   24.0910 C.3         1 ZXD       0.1170
     10 OAD        -0.2814   28.0496   22.7585 O.3         1 ZXD      -0.3862
     11 CAK        -1.9177   27.8135   24.5584 C.3         1 ZXD       0.1261
     12 OAE        -2.2760   29.1828   24.3770 O.3         1 ZXD      -0.3835
     13 H1         -5.6857   27.4065   26.1941 H           1 ZXD       0.0234
     14 H2         -4.6173   26.1701   25.4992 H           1 ZXD       0.0234
     15 H3         -4.7195   27.7925   24.7754 H           1 ZXD       0.0234
     16 H4         -3.6521   28.8027   26.7303 H           1 ZXD       0.0351
     17 H5         -3.0137   27.4950   28.7518 H           1 ZXD       0.0234
     18 H6         -3.6617   26.0193   28.0208 H           1 ZXD       0.0234
     19 H7         -4.7360   27.3631   28.4418 H           1 ZXD       0.0234
     20 H8         -1.9513   26.3260   26.1368 H           1 ZXD       0.0880
     21 H9         -1.2157   27.8348   27.8577 H           1 ZXD       0.2018
     22 H10        -1.2540   29.1120   26.8093 H           1 ZXD       0.2018
     23 H11         0.5411   26.7831   26.6645 H           1 ZXD       0.0840
     24 H12         0.9623   28.4274   27.1599 H           1 ZXD       0.0840
     25 H13         0.4999   29.3242   24.9333 H           1 ZXD       0.0674
     26 H14         2.0158   28.1612   23.7489 H           1 ZXD       0.2101
     27 H15        -0.2690   26.4819   24.0876 H           1 ZXD       0.0649
     28 H16        -0.6047   27.3233   22.1730 H           1 ZXD       0.2100
     29 H17        -2.5674   27.1994   23.9264 H           1 ZXD       0.0677
     30 H18        -2.2345   29.3473   23.4064 H           1 ZXD       0.2102
@<TRIPOS>BOND
     1     1     2   1
     2     2     3   1
     3     2     4   1
     4     4     5   1
     5     4    11   1
     6     5     6   1
     7     6     7   1
     8     7     8   1
     9     7     9   1
    10     9    10   1
    11     9    11   1
    12    11    12   1
    13     1    13   1
    14     1    14   1
    15     1    15   1
    16     2    16   1
    17     3    17   1
    18     3    18   1
    19     3    19   1
    20     4    20   1
    21     5    21   1
    22     5    22   1
    23     6    23   1
    24     6    24   1
    25     7    25   1
    26     8    26   1
    27     9    27   1
    28    10    28   1
    29    11    29   1
    30    12    30   1
@<TRIPOS>SUBSTRUCTURE
     1  ZXD      1

