@<TRIPOS>MOLECULE
2zxd_ligand_004
    30    30
SMALL
GAST_HUCK
****
This file was generated by PARSER (from files_GN.cpp)

@<TRIPOS>ATOM
      1 CAA        -3.1776   28.2753   30.0204 C.3         1 ZXD      -0.0575
      2 CAH        -2.1045   27.2836   29.4843 C.3         1 ZXD      -0.0011
      3 CAB        -2.5118   25.8186   29.8412 C.3         1 ZXD      -0.0575
      4 CAL        -1.6946   27.4638   27.9786 C.3         1 ZXD       0.0089
      5 NAG        -1.6068   28.9186   27.6486 N.4         1 ZXD       0.2331
      6 CAF        -1.0680   29.2326   26.3096 C.3         1 ZXD      -0.0041
      7 CAI        -1.9186   28.5632   25.2054 C.3         1 ZXD       0.1231
      8 OAC        -1.3125   28.8035   23.9346 O.3         1 ZXD      -0.3838
      9 CAJ        -2.0459   27.0380   25.4606 C.3         1 ZXD       0.1170
     10 OAD        -2.9101   26.4561   24.4885 O.3         1 ZXD      -0.3862
     11 CAK        -2.5631   26.7360   26.8953 C.3         1 ZXD       0.1261
     12 OAE        -3.9473   27.0816   27.0187 O.3         1 ZXD      -0.3835
     13 H1         -3.4073   28.0711   31.0660 H           1 ZXD       0.0234
     14 H2         -4.0998   28.2050   29.4436 H           1 ZXD       0.0234
     15 H3         -2.8112   29.3018   29.9717 H           1 ZXD       0.0234
     16 H4         -1.2005   27.4874   30.0671 H           1 ZXD       0.0351
     17 H5         -1.7558   25.1211   29.4811 H           1 ZXD       0.0234
     18 H6         -3.4754   25.5615   29.3885 H           1 ZXD       0.0234
     19 H7         -2.6018   25.6921   30.9215 H           1 ZXD       0.0234
     20 H8         -0.6966   27.0492   27.8798 H           1 ZXD       0.0880
     21 H9         -1.0373   29.3884   28.3576 H           1 ZXD       0.2018
     22 H10        -2.5509   29.3227   27.6949 H           1 ZXD       0.2018
     23 H11        -0.0301   28.9022   26.2486 H           1 ZXD       0.0840
     24 H12        -1.0909   30.3146   26.1788 H           1 ZXD       0.0840
     25 H13        -2.9131   29.0158   25.1943 H           1 ZXD       0.0674
     26 H14        -2.0468   29.0808   23.3282 H           1 ZXD       0.2101
     27 H15        -1.0632   26.5870   25.3326 H           1 ZXD       0.0649
     28 H16        -2.6707   25.4978   24.4639 H           1 ZXD       0.2100
     29 H17        -2.4877   25.6552   27.0391 H           1 ZXD       0.0677
     30 H18        -3.9865   28.0413   26.8178 H           1 ZXD       0.2102
@<TRIPOS>BOND
     1     1     2   1
     2     2     3   1
     3     2     4   1
     4     4     5   1
     5     4    11   1
     6     5     6   1
     7     6     7   1
     8     7     8   1
     9     7     9   1
    10     9    10   1
    11     9    11   1
    12    11    12   1
    13     1    13   1
    14     1    14   1
    15     1    15   1
    16     2    16   1
    17     3    17   1
    18     3    18   1
    19     3    19   1
    20     4    20   1
    21     5    21   1
    22     5    22   1
    23     6    23   1
    24     6    24   1
    25     7    25   1
    26     8    26   1
    27     9    27   1
    28    10    28   1
    29    11    29   1
    30    12    30   1
@<TRIPOS>SUBSTRUCTURE
     1  ZXD      1

