@<TRIPOS>MOLECULE
2zxd_ligand_015
    30    30
SMALL
GAST_HUCK
****
This file was generated by PARSER (from files_GN.cpp)

@<TRIPOS>ATOM
      1 CAA        -0.5625   28.9090   22.8665 C.3         1 ZXD      -0.0575
      2 CAH         0.0129   28.2715   24.1649 C.3         1 ZXD      -0.0011
      3 CAB         1.0792   29.2226   24.7877 C.3         1 ZXD      -0.0575
      4 CAL        -1.1206   27.9122   25.1976 C.3         1 ZXD       0.0089
      5 NAG        -0.5258   27.2366   26.3868 N.4         1 ZXD       0.2331
      6 CAF        -1.4815   26.9044   27.4640 C.3         1 ZXD      -0.0041
      7 CAI        -2.6305   26.0074   26.9354 C.3         1 ZXD       0.1231
      8 OAC        -3.5917   25.7932   27.9638 O.3         1 ZXD      -0.3838
      9 CAJ        -3.3095   26.6518   25.7040 C.3         1 ZXD       0.1170
     10 OAD        -4.3192   25.7878   25.1770 O.3         1 ZXD      -0.3862
     11 CAK        -2.2708   27.0266   24.6096 C.3         1 ZXD       0.1261
     12 OAE        -1.7083   25.8661   23.9990 O.3         1 ZXD      -0.3835
     13 H1          0.2246   29.3577   22.2595 H           1 ZXD       0.0234
     14 H2         -1.2848   29.6830   23.1087 H           1 ZXD       0.0234
     15 H3         -1.0539   28.1494   22.2540 H           1 ZXD       0.0234
     16 H4          0.5283   27.3556   23.8765 H           1 ZXD       0.0351
     17 H5          1.6163   28.7246   25.5967 H           1 ZXD       0.0234
     18 H6          0.6077   30.1205   25.1805 H           1 ZXD       0.0234
     19 H7          1.8240   29.5142   24.0415 H           1 ZXD       0.0234
     20 H8         -1.5652   28.8541   25.5343 H           1 ZXD       0.0880
     21 H9          0.1826   27.8537   26.7929 H           1 ZXD       0.2018
     22 H10        -0.0679   26.3736   26.0839 H           1 ZXD       0.2018
     23 H11        -1.8900   27.8278   27.8870 H           1 ZXD       0.0840
     24 H12        -0.9440   26.3764   28.2534 H           1 ZXD       0.0840
     25 H13        -2.2050   25.0433   26.6407 H           1 ZXD       0.0674
     26 H14        -3.1374   25.2417   28.6373 H           1 ZXD       0.2101
     27 H15        -3.8177   27.5657   26.0256 H           1 ZXD       0.0649
     28 H16        -3.8626   24.9588   24.9102 H           1 ZXD       0.2100
     29 H17        -2.8050   27.5856   23.8402 H           1 ZXD       0.0677
     30 H18        -2.4271   25.2057   23.9094 H           1 ZXD       0.2102
@<TRIPOS>BOND
     1     1     2   1
     2     2     3   1
     3     2     4   1
     4     4     5   1
     5     4    11   1
     6     5     6   1
     7     6     7   1
     8     7     8   1
     9     7     9   1
    10     9    10   1
    11     9    11   1
    12    11    12   1
    13     1    13   1
    14     1    14   1
    15     1    15   1
    16     2    16   1
    17     3    17   1
    18     3    18   1
    19     3    19   1
    20     4    20   1
    21     5    21   1
    22     5    22   1
    23     6    23   1
    24     6    24   1
    25     7    25   1
    26     8    26   1
    27     9    27   1
    28    10    28   1
    29    11    29   1
    30    12    30   1
@<TRIPOS>SUBSTRUCTURE
     1  ZXD      1

