@<TRIPOS>MOLECULE
2zxd_ligand_010
    30    30
SMALL
GAST_HUCK
****
This file was generated by PARSER (from files_GN.cpp)

@<TRIPOS>ATOM
      1 CAA        -2.6964   28.8057   30.2845 C.3         1 ZXD      -0.0575
      2 CAH        -3.3013   28.0434   29.0713 C.3         1 ZXD      -0.0011
      3 CAB        -4.7263   28.5973   28.7815 C.3         1 ZXD      -0.0575
      4 CAL        -2.3554   27.9387   27.8116 C.3         1 ZXD       0.0089
      5 NAG        -0.9161   27.8455   28.2064 N.4         1 ZXD       0.2331
      6 CAF         0.0787   27.6913   27.1102 C.3         1 ZXD      -0.0041
      7 CAI        -0.0842   28.7457   25.9868 C.3         1 ZXD       0.1231
      8 OAC         0.7963   28.4493   24.9049 O.3         1 ZXD      -0.3838
      9 CAJ        -1.5566   28.7564   25.5042 C.3         1 ZXD       0.1170
     10 OAD        -1.7331   29.7322   24.4758 O.3         1 ZXD      -0.3862
     11 CAK        -2.5231   29.0189   26.6970 C.3         1 ZXD       0.1261
     12 OAE        -2.3174   30.3334   27.2163 O.3         1 ZXD      -0.3835
     13 H1         -3.4018   28.8349   31.1194 H           1 ZXD       0.0234
     14 H2         -2.4405   29.8326   30.0169 H           1 ZXD       0.0234
     15 H3         -1.7944   28.3035   30.6506 H           1 ZXD       0.0234
     16 H4         -3.4456   27.0246   29.4284 H           1 ZXD       0.0351
     17 H5         -5.1983   28.0433   27.9655 H           1 ZXD       0.0234
     18 H6         -4.6833   29.6577   28.5116 H           1 ZXD       0.0234
     19 H7         -5.3591   28.5055   29.6700 H           1 ZXD       0.0234
     20 H8         -2.5966   26.9801   27.3302 H           1 ZXD       0.0880
     21 H9         -0.8241   27.0329   28.8226 H           1 ZXD       0.2018
     22 H10        -0.6583   28.6679   28.7513 H           1 ZXD       0.2018
     23 H11        -0.0146   26.6796   26.6930 H           1 ZXD       0.0840
     24 H12         1.0835   27.7899   27.5318 H           1 ZXD       0.0840
     25 H13         0.1800   29.7296   26.3761 H           1 ZXD       0.0674
     26 H14         0.7739   29.2333   24.3185 H           1 ZXD       0.2101
     27 H15        -1.7922   27.7807   25.0618 H           1 ZXD       0.0649
     28 H16        -2.1346   29.2641   23.7124 H           1 ZXD       0.2100
     29 H17        -3.5385   28.9719   26.3062 H           1 ZXD       0.0677
     30 H18        -1.8252   30.2305   28.0708 H           1 ZXD       0.2102
@<TRIPOS>BOND
     1     1     2   1
     2     2     3   1
     3     2     4   1
     4     4     5   1
     5     4    11   1
     6     5     6   1
     7     6     7   1
     8     7     8   1
     9     7     9   1
    10     9    10   1
    11     9    11   1
    12    11    12   1
    13     1    13   1
    14     1    14   1
    15     1    15   1
    16     2    16   1
    17     3    17   1
    18     3    18   1
    19     3    19   1
    20     4    20   1
    21     5    21   1
    22     5    22   1
    23     6    23   1
    24     6    24   1
    25     7    25   1
    26     8    26   1
    27     9    27   1
    28    10    28   1
    29    11    29   1
    30    12    30   1
@<TRIPOS>SUBSTRUCTURE
     1  ZXD      1

