@<TRIPOS>MOLECULE
2zxd_ligand_006
    30    30
SMALL
GAST_HUCK
****
This file was generated by PARSER (from files_GN.cpp)

@<TRIPOS>ATOM
      1 CAA        -2.3379   28.4825   29.2994 C.3         1 ZXD      -0.0575
      2 CAH        -1.5584   27.4412   28.4404 C.3         1 ZXD      -0.0011
      3 CAB        -1.4911   26.0951   29.2226 C.3         1 ZXD      -0.0575
      4 CAL        -2.1171   27.3148   26.9828 C.3         1 ZXD       0.0089
      5 NAG        -1.6413   26.0741   26.3016 N.4         1 ZXD       0.2331
      6 CAF        -2.1919   25.8409   24.9435 C.3         1 ZXD      -0.0041
      7 CAI        -1.9484   27.0379   24.0014 C.3         1 ZXD       0.1231
      8 OAC        -2.6145   26.8535   22.7656 O.3         1 ZXD      -0.3838
      9 CAJ        -2.4424   28.3513   24.6552 C.3         1 ZXD       0.1170
     10 OAD        -2.1269   29.4831   23.8392 O.3         1 ZXD      -0.3862
     11 CAK        -1.8401   28.5539   26.0711 C.3         1 ZXD       0.1261
     12 OAE        -0.4480   28.8490   25.9486 O.3         1 ZXD      -0.3835
     13 H1         -1.9130   28.5692   30.3051 H           1 ZXD       0.0234
     14 H2         -3.3864   28.1978   29.3960 H           1 ZXD       0.0234
     15 H3         -2.2881   29.4707   28.8506 H           1 ZXD       0.0234
     16 H4         -0.5295   27.7963   28.3824 H           1 ZXD       0.0351
     17 H5         -0.8008   25.3989   28.7434 H           1 ZXD       0.0234
     18 H6         -2.4699   25.6211   29.2823 H           1 ZXD       0.0234
     19 H7         -1.1228   26.2388   30.2436 H           1 ZXD       0.0234
     20 H8         -3.2055   27.2050   27.0869 H           1 ZXD       0.0880
     21 H9         -1.9031   25.2719   26.8750 H           1 ZXD       0.2018
     22 H10        -0.6175   26.0734   26.2244 H           1 ZXD       0.2018
     23 H11        -3.2598   25.6245   25.0185 H           1 ZXD       0.0840
     24 H12        -1.6986   24.9528   24.5376 H           1 ZXD       0.0840
     25 H13        -0.8752   27.1067   23.8036 H           1 ZXD       0.0674
     26 H14        -2.3930   27.6438   22.2318 H           1 ZXD       0.2101
     27 H15        -3.5350   28.3043   24.7448 H           1 ZXD       0.0649
     28 H16        -1.2101   29.3453   23.5182 H           1 ZXD       0.2100
     29 H17        -2.3258   29.4461   26.4918 H           1 ZXD       0.0677
     30 H18        -0.1771   29.2414   26.8097 H           1 ZXD       0.2102
@<TRIPOS>BOND
     1     1     2   1
     2     2     3   1
     3     2     4   1
     4     4     5   1
     5     4    11   1
     6     5     6   1
     7     6     7   1
     8     7     8   1
     9     7     9   1
    10     9    10   1
    11     9    11   1
    12    11    12   1
    13     1    13   1
    14     1    14   1
    15     1    15   1
    16     2    16   1
    17     3    17   1
    18     3    18   1
    19     3    19   1
    20     4    20   1
    21     5    21   1
    22     5    22   1
    23     6    23   1
    24     6    24   1
    25     7    25   1
    26     8    26   1
    27     9    27   1
    28    10    28   1
    29    11    29   1
    30    12    30   1
@<TRIPOS>SUBSTRUCTURE
     1  ZXD      1

