@<TRIPOS>MOLECULE
2zxd_ligand_005
    30    30
SMALL
GAST_HUCK
****
This file was generated by PARSER (from files_GN.cpp)

@<TRIPOS>ATOM
      1 CAA        -4.0116   28.1313   30.3302 C.3         1 ZXD      -0.0575
      2 CAH        -2.6181   27.8464   29.6947 C.3         1 ZXD      -0.0011
      3 CAB        -1.8964   26.7293   30.5075 C.3         1 ZXD      -0.0575
      4 CAL        -2.7362   27.5856   28.1497 C.3         1 ZXD       0.0089
      5 NAG        -3.4562   26.3184   27.8541 N.4         1 ZXD       0.2331
      6 CAF        -3.7683   26.1180   26.4222 C.3         1 ZXD      -0.0041
      7 CAI        -2.4903   26.1650   25.5464 C.3         1 ZXD       0.1231
      8 OAC        -2.8896   26.1333   24.1786 O.3         1 ZXD      -0.3838
      9 CAJ        -1.6508   27.4447   25.8248 C.3         1 ZXD       0.1170
     10 OAD        -0.4206   27.3865   25.1035 O.3         1 ZXD      -0.3862
     11 CAK        -1.3917   27.6477   27.3487 C.3         1 ZXD       0.1261
     12 OAE        -0.4273   26.7069   27.8243 O.3         1 ZXD      -0.3835
     13 H1         -3.8954   28.4704   31.3605 H           1 ZXD       0.0234
     14 H2         -4.6317   27.2326   30.3339 H           1 ZXD       0.0234
     15 H3         -4.5406   28.9108   29.7801 H           1 ZXD       0.0234
     16 H4         -2.0323   28.7623   29.8229 H           1 ZXD       0.0351
     17 H5         -0.8421   26.6641   30.2422 H           1 ZXD       0.0234
     18 H6         -2.3648   25.7576   30.3377 H           1 ZXD       0.0234
     19 H7         -1.9437   26.9481   31.5758 H           1 ZXD       0.0234
     20 H8         -3.3477   28.4026   27.7502 H           1 ZXD       0.0880
     21 H9         -4.3352   26.3079   28.3728 H           1 ZXD       0.2018
     22 H10        -2.8892   25.5272   28.1631 H           1 ZXD       0.2018
     23 H11        -4.4773   26.8838   26.0951 H           1 ZXD       0.0840
     24 H12        -4.2537   25.1479   26.3045 H           1 ZXD       0.0840
     25 H13        -1.8789   25.2801   25.7504 H           1 ZXD       0.0674
     26 H14        -2.6409   25.2374   23.8666 H           1 ZXD       0.2101
     27 H15        -2.2013   28.3137   25.4518 H           1 ZXD       0.0649
     28 H16         0.0621   26.6104   25.4658 H           1 ZXD       0.2100
     29 H17        -0.9490   28.6405   27.4947 H           1 ZXD       0.0677
     30 H18        -0.3385   26.0000   27.1390 H           1 ZXD       0.2102
@<TRIPOS>BOND
     1     1     2   1
     2     2     3   1
     3     2     4   1
     4     4     5   1
     5     4    11   1
     6     5     6   1
     7     6     7   1
     8     7     8   1
     9     7     9   1
    10     9    10   1
    11     9    11   1
    12    11    12   1
    13     1    13   1
    14     1    14   1
    15     1    15   1
    16     2    16   1
    17     3    17   1
    18     3    18   1
    19     3    19   1
    20     4    20   1
    21     5    21   1
    22     5    22   1
    23     6    23   1
    24     6    24   1
    25     7    25   1
    26     8    26   1
    27     9    27   1
    28    10    28   1
    29    11    29   1
    30    12    30   1
@<TRIPOS>SUBSTRUCTURE
     1  ZXD      1

