@<TRIPOS>MOLECULE
2zxd_ligand_013
    30    30
SMALL
GAST_HUCK
****
This file was generated by PARSER (from files_GN.cpp)

@<TRIPOS>ATOM
      1 CAA        -6.0236   26.7234   28.6076 C.3         1 ZXD      -0.0575
      2 CAH        -5.4475   26.8596   27.1674 C.3         1 ZXD      -0.0011
      3 CAB        -5.9098   28.2157   26.5580 C.3         1 ZXD      -0.0575
      4 CAL        -3.8952   26.6128   27.1487 C.3         1 ZXD       0.0089
      5 NAG        -3.1366   27.7557   27.7281 N.4         1 ZXD       0.2331
      6 CAF        -1.6832   27.5165   27.8835 C.3         1 ZXD      -0.0041
      7 CAI        -1.0283   27.1522   26.5272 C.3         1 ZXD       0.1231
      8 OAC         0.3504   26.8389   26.7239 O.3         1 ZXD      -0.3838
      9 CAJ        -1.7702   25.9676   25.8478 C.3         1 ZXD       0.1170
     10 OAD        -1.2300   25.7398   24.5468 O.3         1 ZXD      -0.3862
     11 CAK        -3.3046   26.2162   25.7549 C.3         1 ZXD       0.1261
     12 OAE        -3.5656   27.1823   24.7396 O.3         1 ZXD      -0.3835
     13 H1         -7.1118   26.8195   28.5961 H           1 ZXD       0.0234
     14 H2         -5.6138   27.4939   29.2650 H           1 ZXD       0.0234
     15 H3         -5.7817   25.7440   29.0262 H           1 ZXD       0.0234
     16 H4         -5.9145   26.0669   26.5734 H           1 ZXD       0.0351
     17 H5         -5.6432   28.2886   25.5055 H           1 ZXD       0.0234
     18 H6         -5.4659   29.0562   27.0939 H           1 ZXD       0.0234
     19 H7         -6.9956   28.3080   26.6214 H           1 ZXD       0.0234
     20 H8         -3.7140   25.7493   27.7985 H           1 ZXD       0.0880
     21 H9         -3.5216   27.9747   28.6495 H           1 ZXD       0.2018
     22 H10        -3.2621   28.5715   27.1255 H           1 ZXD       0.2018
     23 H11        -1.5196   26.7154   28.6102 H           1 ZXD       0.0840
     24 H12        -1.2226   28.4259   28.2763 H           1 ZXD       0.0840
     25 H13        -1.0725   28.0272   25.8731 H           1 ZXD       0.0674
     26 H14         0.3681   25.9980   27.2310 H           1 ZXD       0.2101
     27 H15        -1.5935   25.0626   26.4355 H           1 ZXD       0.0649
     28 H16        -1.7463   24.9868   24.1869 H           1 ZXD       0.2100
     29 H17        -3.7786   25.2868   25.4258 H           1 ZXD       0.0677
     30 H18        -3.1573   28.0199   25.0466 H           1 ZXD       0.2102
@<TRIPOS>BOND
     1     1     2   1
     2     2     3   1
     3     2     4   1
     4     4     5   1
     5     4    11   1
     6     5     6   1
     7     6     7   1
     8     7     8   1
     9     7     9   1
    10     9    10   1
    11     9    11   1
    12    11    12   1
    13     1    13   1
    14     1    14   1
    15     1    15   1
    16     2    16   1
    17     3    17   1
    18     3    18   1
    19     3    19   1
    20     4    20   1
    21     5    21   1
    22     5    22   1
    23     6    23   1
    24     6    24   1
    25     7    25   1
    26     8    26   1
    27     9    27   1
    28    10    28   1
    29    11    29   1
    30    12    30   1
@<TRIPOS>SUBSTRUCTURE
     1  ZXD      1

