@<TRIPOS>MOLECULE
2zxd_ligand_016
    30    30
SMALL
GAST_HUCK
****
This file was generated by PARSER (from files_GN.cpp)

@<TRIPOS>ATOM
      1 CAA        -0.6645   28.0751   22.4386 C.3         1 ZXD      -0.0575
      2 CAH        -1.1049   28.0612   23.9306 C.3         1 ZXD      -0.0011
      3 CAB        -1.8842   26.7463   24.2280 C.3         1 ZXD      -0.0575
      4 CAL         0.0426   28.3621   24.9633 C.3         1 ZXD       0.0089
      5 NAG         1.0500   29.2939   24.3859 N.4         1 ZXD       0.2331
      6 CAF         2.1181   29.7618   25.2965 C.3         1 ZXD      -0.0041
      7 CAI         2.8828   28.5749   25.9237 C.3         1 ZXD       0.1231
      8 OAC         3.8032   29.0648   26.8990 O.3         1 ZXD      -0.3838
      9 CAJ         1.8885   27.5795   26.5731 C.3         1 ZXD       0.1170
     10 OAD         2.6022   26.4513   27.0747 O.3         1 ZXD      -0.3862
     11 CAK         0.7864   27.1312   25.5705 C.3         1 ZXD       0.1261
     12 OAE         1.3385   26.2974   24.5437 O.3         1 ZXD      -0.3835
     13 H1         -1.4956   27.8030   21.7824 H           1 ZXD       0.0234
     14 H2          0.1561   27.3745   22.2752 H           1 ZXD       0.0234
     15 H3         -0.3387   29.0782   22.1533 H           1 ZXD       0.0234
     16 H4         -1.8368   28.8717   24.0277 H           1 ZXD       0.0351
     17 H5         -2.2303   26.7319   25.2667 H           1 ZXD       0.0234
     18 H6         -1.2524   25.8682   24.0494 H           1 ZXD       0.0234
     19 H7         -2.7594   26.6700   23.5797 H           1 ZXD       0.0234
     20 H8         -0.4357   28.8859   25.7995 H           1 ZXD       0.0880
     21 H9          0.5563   30.1104   24.0336 H           1 ZXD       0.2018
     22 H10         1.4894   28.8324   23.5906 H           1 ZXD       0.2018
     23 H11         1.6761   30.3838   26.0812 H           1 ZXD       0.0840
     24 H12         2.8178   30.3767   24.7219 H           1 ZXD       0.0840
     25 H13         3.4602   28.0648   25.1483 H           1 ZXD       0.0674
     26 H14         3.2490   29.3925   27.6404 H           1 ZXD       0.2101
     27 H15         1.4083   28.0780   27.4289 H           1 ZXD       0.0649
     28 H16         1.9175   25.7538   27.1657 H           1 ZXD       0.2100
     29 H17         0.0714   26.5352   26.1342 H           1 ZXD       0.0677
     30 H18         1.9485   26.8723   24.0333 H           1 ZXD       0.2102
@<TRIPOS>BOND
     1     1     2   1
     2     2     3   1
     3     2     4   1
     4     4     5   1
     5     4    11   1
     6     5     6   1
     7     6     7   1
     8     7     8   1
     9     7     9   1
    10     9    10   1
    11     9    11   1
    12    11    12   1
    13     1    13   1
    14     1    14   1
    15     1    15   1
    16     2    16   1
    17     3    17   1
    18     3    18   1
    19     3    19   1
    20     4    20   1
    21     5    21   1
    22     5    22   1
    23     6    23   1
    24     6    24   1
    25     7    25   1
    26     8    26   1
    27     9    27   1
    28    10    28   1
    29    11    29   1
    30    12    30   1
@<TRIPOS>SUBSTRUCTURE
     1  ZXD      1

