@<TRIPOS>MOLECULE
2zxd_ligand_017
    30    30
SMALL
GAST_HUCK
****
This file was generated by PARSER (from files_GN.cpp)

@<TRIPOS>ATOM
      1 CAA         0.8415   29.7582   27.1560 C.3         1 ZXD      -0.0575
      2 CAH         0.1275   28.3788   27.1192 C.3         1 ZXD      -0.0011
      3 CAB        -0.9113   28.3180   28.2803 C.3         1 ZXD      -0.0575
      4 CAL        -0.3848   27.9567   25.6863 C.3         1 ZXD       0.0089
      5 NAG        -0.7109   29.1237   24.8082 N.4         1 ZXD       0.2331
      6 CAF        -0.9841   28.7731   23.3971 C.3         1 ZXD      -0.0041
      7 CAI        -2.1661   27.7782   23.2872 C.3         1 ZXD       0.1231
      8 OAC        -2.3713   27.3799   21.9343 O.3         1 ZXD      -0.3838
      9 CAJ        -1.9024   26.5327   24.1747 C.3         1 ZXD       0.1170
     10 OAD        -3.0524   25.6878   24.1349 O.3         1 ZXD      -0.3862
     11 CAK        -1.5745   26.9434   25.6363 C.3         1 ZXD       0.1261
     12 OAE        -2.7604   27.5093   26.2096 O.3         1 ZXD      -0.3835
     13 H1          1.3419   29.9128   28.1111 H           1 ZXD       0.0234
     14 H2          0.1219   30.5714   27.0142 H           1 ZXD       0.0234
     15 H3          1.5966   29.8241   26.3713 H           1 ZXD       0.0234
     16 H4          0.8946   27.6432   27.3922 H           1 ZXD       0.0351
     17 H5         -1.3101   27.3047   28.3930 H           1 ZXD       0.0234
     18 H6         -1.7374   29.0170   28.0985 H           1 ZXD       0.0234
     19 H7         -0.4339   28.5737   29.2272 H           1 ZXD       0.0234
     20 H8          0.4678   27.4605   25.2115 H           1 ZXD       0.0880
     21 H9          0.0807   29.7681   24.8137 H           1 ZXD       0.2018
     22 H10        -1.5287   29.6018   25.1912 H           1 ZXD       0.2018
     23 H11        -0.0882   28.3399   22.9399 H           1 ZXD       0.0840
     24 H12        -1.2236   29.6856   22.8526 H           1 ZXD       0.0840
     25 H13        -3.0800   28.2775   23.6211 H           1 ZXD       0.0674
     26 H14        -1.5067   27.0285   21.6442 H           1 ZXD       0.2101
     27 H15        -1.0603   25.9657   23.7603 H           1 ZXD       0.0649
     28 H16        -2.8109   24.8918   24.6543 H           1 ZXD       0.2100
     29 H17        -1.3089   26.0450   26.2053 H           1 ZXD       0.0677
     30 H18        -3.4265   26.7861   26.2107 H           1 ZXD       0.2102
@<TRIPOS>BOND
     1     1     2   1
     2     2     3   1
     3     2     4   1
     4     4     5   1
     5     4    11   1
     6     5     6   1
     7     6     7   1
     8     7     8   1
     9     7     9   1
    10     9    10   1
    11     9    11   1
    12    11    12   1
    13     1    13   1
    14     1    14   1
    15     1    15   1
    16     2    16   1
    17     3    17   1
    18     3    18   1
    19     3    19   1
    20     4    20   1
    21     5    21   1
    22     5    22   1
    23     6    23   1
    24     6    24   1
    25     7    25   1
    26     8    26   1
    27     9    27   1
    28    10    28   1
    29    11    29   1
    30    12    30   1
@<TRIPOS>SUBSTRUCTURE
     1  ZXD      1

