@<TRIPOS>MOLECULE
2zxd_ligand_003
    30    30
SMALL
GAST_HUCK
****
This file was generated by PARSER (from files_GN.cpp)

@<TRIPOS>ATOM
      1 CAA        -1.7957   26.0723   28.7412 C.3         1 ZXD      -0.0575
      2 CAH        -2.8053   26.5153   27.6440 C.3         1 ZXD      -0.0011
      3 CAB        -3.8554   27.4886   28.2517 C.3         1 ZXD      -0.0575
      4 CAL        -2.1684   27.0767   26.3208 C.3         1 ZXD       0.0089
      5 NAG        -1.8131   25.9806   25.3763 N.4         1 ZXD       0.2331
      6 CAF        -1.4849   26.4557   24.0131 C.3         1 ZXD      -0.0041
      7 CAI        -0.3081   27.4640   24.0242 C.3         1 ZXD       0.1231
      8 OAC        -0.1844   28.0457   22.7287 O.3         1 ZXD      -0.3838
      9 CAJ        -0.5171   28.5890   25.0798 C.3         1 ZXD       0.1170
     10 OAD         0.6640   29.3799   25.2037 O.3         1 ZXD      -0.3862
     11 CAK        -0.9279   28.0252   26.4687 C.3         1 ZXD       0.1261
     12 OAE         0.1955   27.3577   27.0558 O.3         1 ZXD      -0.3835
     13 H1         -2.3078   25.5275   29.5374 H           1 ZXD       0.0234
     14 H2         -1.2928   26.9371   29.1815 H           1 ZXD       0.0234
     15 H3         -1.0353   25.4132   28.3202 H           1 ZXD       0.0234
     16 H4         -3.3682   25.6175   27.3711 H           1 ZXD       0.0351
     17 H5         -4.6480   27.6784   27.5241 H           1 ZXD       0.0234
     18 H6         -3.3907   28.4394   28.5201 H           1 ZXD       0.0234
     19 H7         -4.3140   27.0522   29.1434 H           1 ZXD       0.0234
     20 H8         -2.9607   27.6534   25.8335 H           1 ZXD       0.0880
     21 H9         -2.5927   25.3219   25.3020 H           1 ZXD       0.2018
     22 H10        -1.0000   25.4769   25.7383 H           1 ZXD       0.2018
     23 H11        -2.3657   26.9178   23.5605 H           1 ZXD       0.0840
     24 H12        -1.2179   25.5888   23.4099 H           1 ZXD       0.0840
     25 H13         0.6173   26.9294   24.2459 H           1 ZXD       0.0674
     26 H14        -0.1418   27.2894   22.1061 H           1 ZXD       0.2101
     27 H15        -1.3127   29.2531   24.7337 H           1 ZXD       0.0649
     28 H16         0.8080   29.7780   24.3191 H           1 ZXD       0.2100
     29 H17        -1.1857   28.8618   27.1260 H           1 ZXD       0.0677
     30 H18         0.4324   26.6091   26.4626 H           1 ZXD       0.2102
@<TRIPOS>BOND
     1     1     2   1
     2     2     3   1
     3     2     4   1
     4     4     5   1
     5     4    11   1
     6     5     6   1
     7     6     7   1
     8     7     8   1
     9     7     9   1
    10     9    10   1
    11     9    11   1
    12    11    12   1
    13     1    13   1
    14     1    14   1
    15     1    15   1
    16     2    16   1
    17     3    17   1
    18     3    18   1
    19     3    19   1
    20     4    20   1
    21     5    21   1
    22     5    22   1
    23     6    23   1
    24     6    24   1
    25     7    25   1
    26     8    26   1
    27     9    27   1
    28    10    28   1
    29    11    29   1
    30    12    30   1
@<TRIPOS>SUBSTRUCTURE
     1  ZXD      1

