@<TRIPOS>MOLECULE
2zxd_ligand_002
    30    30
SMALL
GAST_HUCK
****
This file was generated by PARSER (from files_GN.cpp)

@<TRIPOS>ATOM
      1 CAA        -1.1859   26.4082   23.7959 C.3         1 ZXD      -0.0575
      2 CAH        -0.9719   27.9461   23.6951 C.3         1 ZXD      -0.0011
      3 CAB        -2.2953   28.6796   24.0485 C.3         1 ZXD      -0.0575
      4 CAL         0.2899   28.4925   24.4666 C.3         1 ZXD       0.0089
      5 NAG         1.4193   27.5188   24.4029 N.4         1 ZXD       0.2331
      6 CAF         2.7034   27.9705   24.9838 C.3         1 ZXD      -0.0041
      7 CAI         2.5222   28.4129   26.4572 C.3         1 ZXD       0.1231
      8 OAC         3.7359   28.9525   26.9755 O.3         1 ZXD      -0.3838
      9 CAJ         1.3896   29.4642   26.5718 C.3         1 ZXD       0.1170
     10 OAD         1.1830   29.8220   27.9363 O.3         1 ZXD      -0.3862
     11 CAK         0.0662   28.9433   25.9508 C.3         1 ZXD       0.1261
     12 OAE        -0.4692   27.8802   26.7400 O.3         1 ZXD      -0.3835
     13 H1         -2.0677   26.1006   23.2288 H           1 ZXD       0.0234
     14 H2         -1.3126   26.1082   24.8367 H           1 ZXD       0.0234
     15 H3         -0.3350   25.8721   23.3754 H           1 ZXD       0.0234
     16 H4         -0.7953   28.1489   22.6309 H           1 ZXD       0.0351
     17 H5         -2.1648   29.7589   23.9537 H           1 ZXD       0.0234
     18 H6         -2.6085   28.4491   25.0684 H           1 ZXD       0.0234
     19 H7         -3.1011   28.3693   23.3793 H           1 ZXD       0.0234
     20 H8          0.6109   29.3871   23.9184 H           1 ZXD       0.0880
     21 H9          1.5909   27.3042   23.4199 H           1 ZXD       0.2018
     22 H10         1.1381   26.6640   24.8941 H           1 ZXD       0.2018
     23 H11         3.1032   28.7910   24.3822 H           1 ZXD       0.0840
     24 H12         3.4137   27.1419   24.9366 H           1 ZXD       0.0840
     25 H13         2.2697   27.5335   27.0579 H           1 ZXD       0.0674
     26 H14         3.8043   29.8545   26.5983 H           1 ZXD       0.2101
     27 H15         1.6912   30.3695   26.0343 H           1 ZXD       0.0649
     28 H16         2.0010   30.2924   28.2016 H           1 ZXD       0.2100
     29 H17        -0.6474   29.7701   25.9788 H           1 ZXD       0.0677
     30 H18        -0.6916   28.2832   27.6059 H           1 ZXD       0.2102
@<TRIPOS>BOND
     1     1     2   1
     2     2     3   1
     3     2     4   1
     4     4     5   1
     5     4    11   1
     6     5     6   1
     7     6     7   1
     8     7     8   1
     9     7     9   1
    10     9    10   1
    11     9    11   1
    12    11    12   1
    13     1    13   1
    14     1    14   1
    15     1    15   1
    16     2    16   1
    17     3    17   1
    18     3    18   1
    19     3    19   1
    20     4    20   1
    21     5    21   1
    22     5    22   1
    23     6    23   1
    24     6    24   1
    25     7    25   1
    26     8    26   1
    27     9    27   1
    28    10    28   1
    29    11    29   1
    30    12    30   1
@<TRIPOS>SUBSTRUCTURE
     1  ZXD      1

