@<TRIPOS>MOLECULE
3acw_ligand_023
    43    46
SMALL
GAST_HUCK
****
This file was generated by PARSER (from files_GN.cpp)

@<TRIPOS>ATOM
      1 OAA        64.8433    7.6360   59.1663 O.3         1 MOL      -0.4236
      2 CAB        57.6963    8.5648   53.6150 C.ar        1 MOL      -0.0563
      3 CAC        58.4919    9.5764   54.1852 C.ar        1 MOL      -0.0552
      4 CAD        57.9915    7.2132   53.8650 C.ar        1 MOL      -0.0552
      5 CAE        59.5911    9.2358   54.9932 C.ar        1 MOL      -0.0454
      6 CAF        59.0846    6.8722   54.6835 C.ar        1 MOL      -0.0454
      7 CAG        60.7835    6.8150   57.2678 C.ar        1 MOL      -0.0261
      8 CAH        62.3166    7.8817   55.7294 C.ar        1 MOL      -0.0261
      9 CAI        61.8648    6.4503   58.0873 C.ar        1 MOL      -0.0390
     10 CAJ        63.3932    7.5053   56.5533 C.ar        1 MOL      -0.0390
     11 CAK        65.2657    4.3482   57.3144 C.3         1 MOL      -0.0152
     12 CAL        66.8997    5.7054   58.6880 C.3         1 MOL      -0.0152
     13 CAM        65.0627    3.4484   58.5780 C.3         1 MOL      -0.0331
     14 CAN        66.5809    4.8336   59.9425 C.3         1 MOL      -0.0331
     15 CAO        64.1913    5.3782   59.8181 C.3         1 MOL      -0.0283
     16 CAP        59.8986    7.8802   55.2499 C.ar        1 MOL       0.0022
     17 CAQ        60.9955    7.5271   56.0731 C.ar        1 MOL       0.0101
     18 CAR        63.2122    6.7497   57.7420 C.ar        1 MOL      -0.0233
     19 CAS        65.6313    5.7960   57.7737 C.3         1 MOL      -0.0252
     20 NAT        65.1984    4.2647   59.8332 N.4         1 MOL       0.2304
     21 CAU        64.4119    6.3882   58.6031 C.3         1 MOL       0.0922
     22 H1         64.9043    8.2876   58.4338 H           1 MOL       0.1945
     23 H2         56.8987    8.8120   53.0255 H           1 MOL       0.0663
     24 H3         58.2637   10.5568   54.0146 H           1 MOL       0.0633
     25 H4         57.4120    6.4790   53.4560 H           1 MOL       0.0633
     26 H5         60.1563    9.9815   55.4093 H           1 MOL       0.0672
     27 H6         59.2850    5.8838   54.8557 H           1 MOL       0.0672
     28 H7         59.8356    6.5706   57.5576 H           1 MOL       0.0700
     29 H8         62.5042    8.3957   54.8651 H           1 MOL       0.0700
     30 H9         61.6247    5.9863   58.9601 H           1 MOL       0.0838
     31 H10        64.3210    7.8079   56.2612 H           1 MOL       0.0838
     32 H11        64.3557    4.3666   56.7093 H           1 MOL       0.0312
     33 H12        66.0616    3.9432   56.6837 H           1 MOL       0.0312
     34 H13        67.7288    5.2614   58.1337 H           1 MOL       0.0312
     35 H14        67.2266    6.7011   58.9875 H           1 MOL       0.0312
     36 H15        65.8001    2.6397   58.5828 H           1 MOL       0.0814
     37 H16        64.0772    2.9754   58.5444 H           1 MOL       0.0814
     38 H17        66.6676    5.4372   60.8505 H           1 MOL       0.0814
     39 H18        67.3085    4.0221   60.0313 H           1 MOL       0.0814
     40 H19        64.2367    5.9079   60.7699 H           1 MOL       0.0725
     41 H20        63.2234    4.8881   59.8072 H           1 MOL       0.0725
     42 H21        65.8976    6.4036   56.9072 H           1 MOL       0.0225
     43 H22        65.0212    3.6652   60.6436 H           1 MOL       0.2025
@<TRIPOS>BOND
     1    21     1   1
     2     3     2  ar
     3     4     2  ar
     4     5     3  ar
     5     6     4  ar
     6    16     5  ar
     7    16     6  ar
     8     9     7  ar
     9     7    17  ar
    10    10     8  ar
    11     8    17  ar
    12    18     9  ar
    13    18    10  ar
    14    13    11   1
    15    11    19   1
    16    14    12   1
    17    12    19   1
    18    20    13   1
    19    20    14   1
    20    15    20   1
    21    21    15   1
    22    17    16   1
    23    18    21   1
    24    19    21   1
    25     1    22   1
    26     2    23   1
    27     3    24   1
    28     4    25   1
    29     5    26   1
    30     6    27   1
    31     7    28   1
    32     8    29   1
    33     9    30   1
    34    10    31   1
    35    11    32   1
    36    11    33   1
    37    12    34   1
    38    12    35   1
    39    13    36   1
    40    13    37   1
    41    14    38   1
    42    14    39   1
    43    15    40   1
    44    15    41   1
    45    19    42   1
    46    20    43   1
@<TRIPOS>SUBSTRUCTURE
     1  MOL      2

