@<TRIPOS>MOLECULE
3acw_ligand_046
    43    46
SMALL
GAST_HUCK
****
This file was generated by PARSER (from files_GN.cpp)

@<TRIPOS>ATOM
      1 OAA        54.9014    7.7164   49.4252 O.3         1 MOL      -0.4236
      2 CAB        49.2833    0.7442   50.1014 C.ar        1 MOL      -0.0563
      3 CAC        48.6539    1.9949   49.9779 C.ar        1 MOL      -0.0552
      4 CAD        50.6748    0.6735   50.2939 C.ar        1 MOL      -0.0552
      5 CAE        49.4177    3.1765   50.0486 C.ar        1 MOL      -0.0454
      6 CAF        51.4371    1.8546   50.3731 C.ar        1 MOL      -0.0454
      7 CAG        52.2765    4.6825   51.4900 C.ar        1 MOL      -0.0261
      8 CAH        51.6499    5.1742   49.1944 C.ar        1 MOL      -0.0261
      9 CAI        53.0218    5.8767   51.5432 C.ar        1 MOL      -0.0390
     10 CAJ        52.4128    6.3512   49.2495 C.ar        1 MOL      -0.0390
     11 CAK        53.5777    8.9310   52.8003 C.3         1 MOL      -0.0152
     12 CAL        55.5543    9.7071   51.4557 C.3         1 MOL      -0.0152
     13 CAM        52.7526   10.1240   52.2171 C.3         1 MOL      -0.0331
     14 CAN        54.6825   10.8802   50.8941 C.3         1 MOL      -0.0331
     15 CAO        53.0781    9.2908   49.9334 C.3         1 MOL      -0.0283
     16 CAP        50.8206    3.1221   50.2511 C.ar        1 MOL       0.0022
     17 CAQ        51.5767    4.3186   50.3161 C.ar        1 MOL       0.0101
     18 CAR        53.0880    6.7590   50.4317 C.ar        1 MOL      -0.0233
     19 CAS        54.6429    8.4625   51.7475 C.3         1 MOL      -0.0252
     20 NAT        53.2419   10.4762   50.8431 N.4         1 MOL       0.2304
     21 CAU        53.9101    8.0261   50.4133 C.3         1 MOL       0.0922
     22 H1         55.7169    7.4635   49.9206 H           1 MOL       0.1945
     23 H2         48.7292   -0.1139   50.0521 H           1 MOL       0.0663
     24 H3         47.6406    2.0487   49.8467 H           1 MOL       0.0633
     25 H4         51.1344   -0.2393   50.3756 H           1 MOL       0.0633
     26 H5         48.9376    4.0782   49.9617 H           1 MOL       0.0672
     27 H6         52.4495    1.7815   50.5020 H           1 MOL       0.0672
     28 H7         52.2443    4.0693   52.3149 H           1 MOL       0.0700
     29 H8         51.1776    4.9292   48.3173 H           1 MOL       0.0700
     30 H9         53.5236    6.0839   52.4114 H           1 MOL       0.0838
     31 H10        52.4706    6.9256   48.4056 H           1 MOL       0.0838
     32 H11        52.9070    8.1063   53.0511 H           1 MOL       0.0312
     33 H12        54.0777    9.2399   53.7211 H           1 MOL       0.0312
     34 H13        56.0558   10.0243   52.3768 H           1 MOL       0.0312
     35 H14        56.3340    9.4465   50.7366 H           1 MOL       0.0312
     36 H15        52.8304   10.9976   52.8720 H           1 MOL       0.0814
     37 H16        51.6930    9.8641   52.1752 H           1 MOL       0.0814
     38 H17        55.0194   11.1671   49.8960 H           1 MOL       0.0814
     39 H18        54.7968   11.7669   51.5245 H           1 MOL       0.0814
     40 H19        53.3623    9.5732   48.9180 H           1 MOL       0.0725
     41 H20        52.0001    9.0712   49.8847 H           1 MOL       0.0725
     42 H21        55.2658    7.6673   52.1549 H           1 MOL       0.0225
     43 H22        52.6876   11.2515   50.4812 H           1 MOL       0.2025
@<TRIPOS>BOND
     1    21     1   1
     2     3     2  ar
     3     4     2  ar
     4     5     3  ar
     5     6     4  ar
     6    16     5  ar
     7    16     6  ar
     8     9     7  ar
     9     7    17  ar
    10    10     8  ar
    11     8    17  ar
    12    18     9  ar
    13    18    10  ar
    14    13    11   1
    15    11    19   1
    16    14    12   1
    17    12    19   1
    18    20    13   1
    19    20    14   1
    20    15    20   1
    21    21    15   1
    22    17    16   1
    23    18    21   1
    24    19    21   1
    25     1    22   1
    26     2    23   1
    27     3    24   1
    28     4    25   1
    29     5    26   1
    30     6    27   1
    31     7    28   1
    32     8    29   1
    33     9    30   1
    34    10    31   1
    35    11    32   1
    36    11    33   1
    37    12    34   1
    38    12    35   1
    39    13    36   1
    40    13    37   1
    41    14    38   1
    42    14    39   1
    43    15    40   1
    44    15    41   1
    45    19    42   1
    46    20    43   1
@<TRIPOS>SUBSTRUCTURE
     1  MOL      2

