@<TRIPOS>MOLECULE
3acw_ligand_002
    43    46
SMALL
GAST_HUCK
****
This file was generated by PARSER (from files_GN.cpp)

@<TRIPOS>ATOM
      1 OAA        52.6368   12.1736   51.9832 O.3         1 MOL      -0.4236
      2 CAB        57.3393   19.6709   54.0354 C.ar        1 MOL      -0.0563
      3 CAC        58.0117   18.5029   54.4337 C.ar        1 MOL      -0.0552
      4 CAD        56.1263   19.5753   53.3320 C.ar        1 MOL      -0.0552
      5 CAE        57.4723   17.2387   54.1277 C.ar        1 MOL      -0.0454
      6 CAF        55.5880   18.3115   53.0260 C.ar        1 MOL      -0.0454
      7 CAG        55.5939   14.8430   54.1050 C.ar        1 MOL      -0.0261
      8 CAH        55.2272   15.5465   51.8160 C.ar        1 MOL      -0.0261
      9 CAI        55.0576   13.5785   53.7991 C.ar        1 MOL      -0.0390
     10 CAJ        54.6874   14.2819   51.5197 C.ar        1 MOL      -0.0390
     11 CAK        55.6573   10.2437   53.2059 C.3         1 MOL      -0.0152
     12 CAL        53.3237    9.4942   52.6520 C.3         1 MOL      -0.0152
     13 CAM        56.0900    9.7136   51.8000 C.3         1 MOL      -0.0331
     14 CAN        53.7753    9.1016   51.2093 C.3         1 MOL      -0.0331
     15 CAO        54.6186   11.3633   50.7300 C.3         1 MOL      -0.0283
     16 CAP        56.2512   17.1230   53.4200 C.ar        1 MOL       0.0022
     17 CAQ        55.6967   15.8444   53.1159 C.ar        1 MOL       0.0101
     18 CAR        54.6210   13.2492   52.4914 C.ar        1 MOL      -0.0233
     19 CAS        54.1653   10.7224   53.1461 C.3         1 MOL      -0.0252
     20 NAT        54.9774    9.9089   50.8065 N.4         1 MOL       0.2304
     21 CAU        54.0407   11.9093   52.1058 C.3         1 MOL       0.0922
     22 H1         52.4654   12.3992   51.0355 H           1 MOL       0.1945
     23 H2         57.7293   20.5874   54.2583 H           1 MOL       0.0663
     24 H3         58.8964   18.5733   54.9417 H           1 MOL       0.0633
     25 H4         55.6316   20.4236   53.0494 H           1 MOL       0.0633
     26 H5         57.9843   16.4006   54.4154 H           1 MOL       0.0672
     27 H6         54.6907   18.2609   52.5341 H           1 MOL       0.0672
     28 H7         55.8896   15.0374   55.0664 H           1 MOL       0.0700
     29 H8         55.2835   16.2479   51.0688 H           1 MOL       0.0700
     30 H9         54.9809   12.9113   54.5641 H           1 MOL       0.0838
     31 H10        54.3517   14.1163   50.5697 H           1 MOL       0.0838
     32 H11        56.3127   11.0589   53.5106 H           1 MOL       0.0312
     33 H12        55.7678    9.4551   53.9530 H           1 MOL       0.0312
     34 H13        53.4770    8.6487   53.3279 H           1 MOL       0.0312
     35 H14        52.2559    9.7267   52.6668 H           1 MOL       0.0312
     36 H15        56.3398    8.6520   51.8606 H           1 MOL       0.0814
     37 H16        56.9868   10.2304   51.4544 H           1 MOL       0.0814
     38 H17        52.9603    9.2701   50.4993 H           1 MOL       0.0814
     39 H18        54.0194    8.0384   51.1661 H           1 MOL       0.0814
     40 H19        53.9109   11.4963   49.9126 H           1 MOL       0.0725
     41 H20        55.5192   11.9059   50.4344 H           1 MOL       0.0725
     42 H21        53.8051   11.0009   54.1394 H           1 MOL       0.0225
     43 H22        55.2909    9.6043   49.8780 H           1 MOL       0.2025
@<TRIPOS>BOND
     1    21     1   1
     2     3     2  ar
     3     4     2  ar
     4     5     3  ar
     5     6     4  ar
     6    16     5  ar
     7    16     6  ar
     8     9     7  ar
     9     7    17  ar
    10    10     8  ar
    11     8    17  ar
    12    18     9  ar
    13    18    10  ar
    14    13    11   1
    15    11    19   1
    16    14    12   1
    17    12    19   1
    18    20    13   1
    19    20    14   1
    20    15    20   1
    21    21    15   1
    22    17    16   1
    23    18    21   1
    24    19    21   1
    25     1    22   1
    26     2    23   1
    27     3    24   1
    28     4    25   1
    29     5    26   1
    30     6    27   1
    31     7    28   1
    32     8    29   1
    33     9    30   1
    34    10    31   1
    35    11    32   1
    36    11    33   1
    37    12    34   1
    38    12    35   1
    39    13    36   1
    40    13    37   1
    41    14    38   1
    42    14    39   1
    43    15    40   1
    44    15    41   1
    45    19    42   1
    46    20    43   1
@<TRIPOS>SUBSTRUCTURE
     1  MOL      2

