@<TRIPOS>MOLECULE
3acw_ligand_061
    43    46
SMALL
GAST_HUCK
****
This file was generated by PARSER (from files_GN.cpp)

@<TRIPOS>ATOM
      1 OAA        55.0917   10.9871   51.6958 O.3         1 MOL      -0.4236
      2 CAB        56.5473    2.4042   54.7434 C.ar        1 MOL      -0.0563
      3 CAC        55.9999    2.7028   53.4843 C.ar        1 MOL      -0.0552
      4 CAD        57.1291    3.4258   55.5117 C.ar        1 MOL      -0.0552
      5 CAE        56.0299    4.0212   52.9963 C.ar        1 MOL      -0.0454
      6 CAF        57.1578    4.7448   55.0219 C.ar        1 MOL      -0.0454
      7 CAG        57.6660    7.3099   53.5288 C.ar        1 MOL      -0.0261
      8 CAH        55.4612    6.9545   52.6074 C.ar        1 MOL      -0.0261
      9 CAI        57.6247    8.6492   53.1039 C.ar        1 MOL      -0.0390
     10 CAJ        55.4296    8.2930   52.1754 C.ar        1 MOL      -0.0390
     11 CAK        58.8248   10.9128   50.9239 C.3         1 MOL      -0.0152
     12 CAL        56.9805   12.4335   50.2100 C.3         1 MOL      -0.0152
     13 CAM        59.1712   11.9085   52.0770 C.3         1 MOL      -0.0331
     14 CAN        57.3453   13.4053   51.3827 C.3         1 MOL      -0.0331
     15 CAO        56.9351   11.6692   53.0847 C.3         1 MOL      -0.0283
     16 CAP        56.6017    5.0747   53.7587 C.ar        1 MOL       0.0022
     17 CAQ        56.5809    6.4286   53.2925 C.ar        1 MOL       0.0101
     18 CAR        56.5093    9.1874   52.4133 C.ar        1 MOL      -0.0233
     19 CAS        57.2825   10.9587   50.6574 C.3         1 MOL      -0.0252
     20 NAT        57.9399   12.6446   52.5328 N.4         1 MOL       0.2304
     21 CAU        56.4610   10.6408   51.9764 C.3         1 MOL       0.0922
     22 H1         54.9179   10.6515   50.7876 H           1 MOL       0.1945
     23 H2         56.5256    1.4468   55.0988 H           1 MOL       0.0663
     24 H3         55.5747    1.9602   52.9259 H           1 MOL       0.0633
     25 H4         57.5211    3.2132   56.4315 H           1 MOL       0.0633
     26 H5         55.6323    4.2051   52.0731 H           1 MOL       0.0672
     27 H6         57.5618    5.4695   55.6213 H           1 MOL       0.0672
     28 H7         58.5085    6.9813   54.0077 H           1 MOL       0.0700
     29 H8         54.6360    6.3748   52.4326 H           1 MOL       0.0700
     30 H9         58.4302    9.2295   53.3254 H           1 MOL       0.0838
     31 H10        54.5855    8.6007   51.6893 H           1 MOL       0.0838
     32 H11        59.1528    9.9025   51.1677 H           1 MOL       0.0312
     33 H12        59.3644   11.1952   50.0202 H           1 MOL       0.0312
     34 H13        57.5603   12.6861   49.3196 H           1 MOL       0.0312
     35 H14        55.9291   12.5456   49.9399 H           1 MOL       0.0312
     36 H15        59.9259   12.6249   51.7404 H           1 MOL       0.0814
     37 H16        59.6159   11.3604   52.9119 H           1 MOL       0.0814
     38 H17        56.4520   13.9424   51.7157 H           1 MOL       0.0814
     39 H18        58.0543   14.1619   51.0368 H           1 MOL       0.0814
     40 H19        56.0874   12.2295   53.4912 H           1 MOL       0.0725
     41 H20        57.3763   11.1695   53.9511 H           1 MOL       0.0725
     42 H21        57.0189   10.2646   49.8550 H           1 MOL       0.0225
     43 H22        58.1955   13.3069   53.2681 H           1 MOL       0.2025
@<TRIPOS>BOND
     1    21     1   1
     2     3     2  ar
     3     4     2  ar
     4     5     3  ar
     5     6     4  ar
     6    16     5  ar
     7    16     6  ar
     8     9     7  ar
     9     7    17  ar
    10    10     8  ar
    11     8    17  ar
    12    18     9  ar
    13    18    10  ar
    14    13    11   1
    15    11    19   1
    16    14    12   1
    17    12    19   1
    18    20    13   1
    19    20    14   1
    20    15    20   1
    21    21    15   1
    22    17    16   1
    23    18    21   1
    24    19    21   1
    25     1    22   1
    26     2    23   1
    27     3    24   1
    28     4    25   1
    29     5    26   1
    30     6    27   1
    31     7    28   1
    32     8    29   1
    33     9    30   1
    34    10    31   1
    35    11    32   1
    36    11    33   1
    37    12    34   1
    38    12    35   1
    39    13    36   1
    40    13    37   1
    41    14    38   1
    42    14    39   1
    43    15    40   1
    44    15    41   1
    45    19    42   1
    46    20    43   1
@<TRIPOS>SUBSTRUCTURE
     1  MOL      2

