@<TRIPOS>MOLECULE
3acw_ligand_034
    43    46
SMALL
GAST_HUCK
****
This file was generated by PARSER (from files_GN.cpp)

@<TRIPOS>ATOM
      1 OAA        52.4784    8.2474   52.8440 O.3         1 MOL      -0.4236
      2 CAB        57.6640    1.6235   49.5365 C.ar        1 MOL      -0.0563
      3 CAC        57.8301    2.8259   48.8241 C.ar        1 MOL      -0.0552
      4 CAD        56.8143    1.5916   50.6584 C.ar        1 MOL      -0.0552
      5 CAE        57.1790    4.0005   49.2513 C.ar        1 MOL      -0.0454
      6 CAF        56.1423    2.7584   51.0712 C.ar        1 MOL      -0.0454
      7 CAG        55.5114    5.4729   52.2096 C.ar        1 MOL      -0.0261
      8 CAH        55.1834    6.1581   49.9087 C.ar        1 MOL      -0.0261
      9 CAI        54.8666    6.6423   52.6416 C.ar        1 MOL      -0.0390
     10 CAJ        54.5590    7.3407   50.3498 C.ar        1 MOL      -0.0390
     11 CAK        54.4556   10.7464   50.7519 C.3         1 MOL      -0.0152
     12 CAL        52.2724   10.9673   51.9911 C.3         1 MOL      -0.0152
     13 CAM        55.1466   11.4349   51.9743 C.3         1 MOL      -0.0331
     14 CAN        53.0272   11.5640   53.2223 C.3         1 MOL      -0.0331
     15 CAO        54.4614    9.5789   53.4179 C.3         1 MOL      -0.0283
     16 CAP        56.3248    3.9947   50.3857 C.ar        1 MOL       0.0022
     17 CAQ        55.6771    5.1985   50.8291 C.ar        1 MOL       0.0101
     18 CAR        54.3953    7.6236   51.7305 C.ar        1 MOL      -0.0233
     19 CAS        53.2023    9.9471   51.2471 C.3         1 MOL      -0.0252
     20 NAT        54.4453   11.0721   53.2501 N.4         1 MOL       0.2304
     21 CAU        53.6622    8.8285   52.2705 C.3         1 MOL       0.0922
     22 H1         51.9305    7.9656   52.0731 H           1 MOL       0.1945
     23 H2         58.1492    0.7745   49.2318 H           1 MOL       0.0663
     24 H3         58.4383    2.8522   47.9988 H           1 MOL       0.0633
     25 H4         56.6806    0.7158   51.1706 H           1 MOL       0.0633
     26 H5         57.3581    4.8720   48.7376 H           1 MOL       0.0672
     27 H6         55.5143    2.6973   51.8775 H           1 MOL       0.0672
     28 H7         55.8577    4.8135   52.9144 H           1 MOL       0.0700
     29 H8         55.2463    5.9805   48.9035 H           1 MOL       0.0700
     30 H9         54.7264    6.7692   53.6419 H           1 MOL       0.0838
     31 H10        54.1920    7.9695   49.6409 H           1 MOL       0.0838
     32 H11        55.1671   10.0761   50.2621 H           1 MOL       0.0312
     33 H12        54.1509   11.4995   50.0163 H           1 MOL       0.0312
     34 H13        51.9875   11.7770   51.3113 H           1 MOL       0.0312
     35 H14        51.3524   10.4777   52.3171 H           1 MOL       0.0312
     36 H15        55.1338   12.5206   51.8426 H           1 MOL       0.0814
     37 H16        56.1947   11.1402   52.0353 H           1 MOL       0.0814
     38 H17        52.5203   11.2851   54.1523 H           1 MOL       0.0814
     39 H18        53.0220   12.6588   53.1836 H           1 MOL       0.0814
     40 H19        54.0430    9.3301   54.3966 H           1 MOL       0.0725
     41 H20        55.5062    9.2566   53.4496 H           1 MOL       0.0725
     42 H21        52.6476    9.5286   50.4058 H           1 MOL       0.0225
     43 H22        54.9324   11.5029   54.0402 H           1 MOL       0.2025
@<TRIPOS>BOND
     1    21     1   1
     2     3     2  ar
     3     4     2  ar
     4     5     3  ar
     5     6     4  ar
     6    16     5  ar
     7    16     6  ar
     8     9     7  ar
     9     7    17  ar
    10    10     8  ar
    11     8    17  ar
    12    18     9  ar
    13    18    10  ar
    14    13    11   1
    15    11    19   1
    16    14    12   1
    17    12    19   1
    18    20    13   1
    19    20    14   1
    20    15    20   1
    21    21    15   1
    22    17    16   1
    23    18    21   1
    24    19    21   1
    25     1    22   1
    26     2    23   1
    27     3    24   1
    28     4    25   1
    29     5    26   1
    30     6    27   1
    31     7    28   1
    32     8    29   1
    33     9    30   1
    34    10    31   1
    35    11    32   1
    36    11    33   1
    37    12    34   1
    38    12    35   1
    39    13    36   1
    40    13    37   1
    41    14    38   1
    42    14    39   1
    43    15    40   1
    44    15    41   1
    45    19    42   1
    46    20    43   1
@<TRIPOS>SUBSTRUCTURE
     1  MOL      2

