@<TRIPOS>MOLECULE
3acw_ligand_005
    43    46
SMALL
GAST_HUCK
****
This file was generated by PARSER (from files_GN.cpp)

@<TRIPOS>ATOM
      1 OAA        56.3648   10.3621   50.9345 O.3         1 MOL      -0.4236
      2 CAB        56.2966    1.3711   50.9445 C.ar        1 MOL      -0.0563
      3 CAC        55.0083    1.9027   50.7651 C.ar        1 MOL      -0.0552
      4 CAD        57.3738    2.2252   51.2433 C.ar        1 MOL      -0.0552
      5 CAE        54.7917    3.2876   50.8921 C.ar        1 MOL      -0.0454
      6 CAF        57.1575    3.6086   51.3846 C.ar        1 MOL      -0.0454
      7 CAG        55.2089    6.3159   50.2327 C.ar        1 MOL      -0.0261
      8 CAH        55.9154    6.2233   52.5497 C.ar        1 MOL      -0.0261
      9 CAI        55.0604    7.7094   50.3402 C.ar        1 MOL      -0.0390
     10 CAJ        55.7487    7.6160   52.6529 C.ar        1 MOL      -0.0390
     11 CAK        53.7912   10.3285   53.7285 C.3         1 MOL      -0.0152
     12 CAL        55.2507   12.1682   52.8282 C.3         1 MOL      -0.0152
     13 CAM        52.6214   10.8991   52.8546 C.3         1 MOL      -0.0331
     14 CAN        54.0792   12.6447   51.9079 C.3         1 MOL      -0.0331
     15 CAO        53.9045   10.4431   50.8165 C.3         1 MOL      -0.0283
     16 CAP        55.8639    4.1557   51.2104 C.ar        1 MOL       0.0022
     17 CAQ        55.6484    5.5533   51.3357 C.ar        1 MOL       0.0101
     18 CAR        55.3053    8.3988   51.5571 C.ar        1 MOL      -0.0233
     19 CAS        55.1599   10.6127   53.0178 C.3         1 MOL      -0.0252
     20 NAT        53.1632   11.4982   51.5873 N.4         1 MOL       0.2304
     21 CAU        55.1776    9.9059   51.5982 C.3         1 MOL       0.0922
     22 H1         56.2181   10.2175   49.9780 H           1 MOL       0.1945
     23 H2         56.4536    0.3642   50.8529 H           1 MOL       0.0663
     24 H3         54.2265    1.2829   50.5418 H           1 MOL       0.0633
     25 H4         58.3130    1.8402   51.3622 H           1 MOL       0.0633
     26 H5         53.8451    3.6546   50.7670 H           1 MOL       0.0672
     27 H6         57.9564    4.2148   51.5929 H           1 MOL       0.0672
     28 H7         55.0250    5.8666   49.3313 H           1 MOL       0.0700
     29 H8         56.2426    5.7005   53.3684 H           1 MOL       0.0700
     30 H9         54.7722    8.2248   49.5069 H           1 MOL       0.0838
     31 H10        55.9880    8.0472   53.5408 H           1 MOL       0.0838
     32 H11        53.6549    9.2554   53.8732 H           1 MOL       0.0312
     33 H12        53.7794   10.7914   54.7193 H           1 MOL       0.0312
     34 H13        55.1915   12.6657   53.8016 H           1 MOL       0.0312
     35 H14        56.2135   12.4451   52.3885 H           1 MOL       0.0312
     36 H15        52.0686   11.6572   53.4154 H           1 MOL       0.0814
     37 H16        51.9093   10.1025   52.6154 H           1 MOL       0.0814
     38 H17        54.4785   13.0657   50.9804 H           1 MOL       0.0814
     39 H18        53.5175   13.4417   52.4030 H           1 MOL       0.0814
     40 H19        54.1973   10.8530   49.8440 H           1 MOL       0.0725
     41 H20        53.2011    9.6307   50.6036 H           1 MOL       0.0725
     42 H21        55.9976   10.2955   53.6436 H           1 MOL       0.0225
     43 H22        52.3954   11.8387   51.0037 H           1 MOL       0.2025
@<TRIPOS>BOND
     1    21     1   1
     2     3     2  ar
     3     4     2  ar
     4     5     3  ar
     5     6     4  ar
     6    16     5  ar
     7    16     6  ar
     8     9     7  ar
     9     7    17  ar
    10    10     8  ar
    11     8    17  ar
    12    18     9  ar
    13    18    10  ar
    14    13    11   1
    15    11    19   1
    16    14    12   1
    17    12    19   1
    18    20    13   1
    19    20    14   1
    20    15    20   1
    21    21    15   1
    22    17    16   1
    23    18    21   1
    24    19    21   1
    25     1    22   1
    26     2    23   1
    27     3    24   1
    28     4    25   1
    29     5    26   1
    30     6    27   1
    31     7    28   1
    32     8    29   1
    33     9    30   1
    34    10    31   1
    35    11    32   1
    36    11    33   1
    37    12    34   1
    38    12    35   1
    39    13    36   1
    40    13    37   1
    41    14    38   1
    42    14    39   1
    43    15    40   1
    44    15    41   1
    45    19    42   1
    46    20    43   1
@<TRIPOS>SUBSTRUCTURE
     1  MOL      2

