@<TRIPOS>MOLECULE
3acw_ligand_053
    43    46
SMALL
GAST_HUCK
****
This file was generated by PARSER (from files_GN.cpp)

@<TRIPOS>ATOM
      1 OAA        54.6352   15.4331   51.6799 O.3         1 MOL      -0.4236
      2 CAB        53.7979    6.7475   49.1901 C.ar        1 MOL      -0.0563
      3 CAC        53.0619    7.8611   48.7466 C.ar        1 MOL      -0.0552
      4 CAD        54.8023    6.9087   50.1619 C.ar        1 MOL      -0.0552
      5 CAE        53.3224    9.1365   49.2847 C.ar        1 MOL      -0.0454
      6 CAF        55.0689    8.1850   50.6945 C.ar        1 MOL      -0.0454
      7 CAG        53.6414   11.3567   51.4434 C.ar        1 MOL      -0.0261
      8 CAH        55.9130   11.1541   50.6127 C.ar        1 MOL      -0.0261
      9 CAI        53.9500   12.6291   51.9622 C.ar        1 MOL      -0.0390
     10 CAJ        56.2003   12.4408   51.0938 C.ar        1 MOL      -0.0390
     11 CAK        57.9587   14.3949   53.2311 C.3         1 MOL      -0.0152
     12 CAL        56.9820   16.6510   52.7442 C.3         1 MOL      -0.0152
     13 CAM        57.4605   14.5352   54.7067 C.3         1 MOL      -0.0331
     14 CAN        56.4511   16.7205   54.2132 C.3         1 MOL      -0.0331
     15 CAO        55.1413   14.6472   53.9383 C.3         1 MOL      -0.0283
     16 CAP        54.3301    9.3121   50.2605 C.ar        1 MOL       0.0022
     17 CAQ        54.6248   10.6022   50.7657 C.ar        1 MOL       0.0101
     18 CAR        55.2428   13.1974   51.8146 C.ar        1 MOL      -0.0233
     19 CAS        56.9822   15.1554   52.2669 C.3         1 MOL      -0.0252
     20 NAT        56.1952   15.3395   54.7489 N.4         1 MOL       0.2304
     21 CAU        55.5206   14.5622   52.3991 C.3         1 MOL       0.0922
     22 H1         54.8942   15.3947   50.7321 H           1 MOL       0.1945
     23 H2         53.6082    5.8217   48.8023 H           1 MOL       0.0663
     24 H3         52.3409    7.7467   48.0310 H           1 MOL       0.0633
     25 H4         55.3341    6.0991   50.4915 H           1 MOL       0.0633
     26 H5         52.7853    9.9391   48.9451 H           1 MOL       0.0672
     27 H6         55.8078    8.2846   51.3983 H           1 MOL       0.0672
     28 H7         52.6948   10.9848   51.5725 H           1 MOL       0.0700
     29 H8         56.6431   10.6370   50.1231 H           1 MOL       0.0700
     30 H9         53.2167   13.1373   52.4631 H           1 MOL       0.0838
     31 H10        57.1294   12.8074   50.8943 H           1 MOL       0.0838
     32 H11        58.0336   13.3400   52.9666 H           1 MOL       0.0312
     33 H12        58.9621   14.8130   53.1355 H           1 MOL       0.0312
     34 H13        57.9966   17.0537   52.6926 H           1 MOL       0.0312
     35 H14        56.3623   17.2602   52.0824 H           1 MOL       0.0312
     36 H15        58.2236   15.0267   55.3112 H           1 MOL       0.0814
     37 H16        57.2933   13.5476   55.1498 H           1 MOL       0.0814
     38 H17        55.5260   17.3039   54.2467 H           1 MOL       0.0814
     39 H18        57.1785   17.2363   54.8486 H           1 MOL       0.0814
     40 H19        54.1965   15.1768   54.0748 H           1 MOL       0.0725
     41 H20        54.9909   13.6509   54.3660 H           1 MOL       0.0725
     42 H21        57.3412   15.1118   51.2352 H           1 MOL       0.0225
     43 H22        55.8784   15.4116   55.7171 H           1 MOL       0.2025
@<TRIPOS>BOND
     1    21     1   1
     2     3     2  ar
     3     4     2  ar
     4     5     3  ar
     5     6     4  ar
     6    16     5  ar
     7    16     6  ar
     8     9     7  ar
     9     7    17  ar
    10    10     8  ar
    11     8    17  ar
    12    18     9  ar
    13    18    10  ar
    14    13    11   1
    15    11    19   1
    16    14    12   1
    17    12    19   1
    18    20    13   1
    19    20    14   1
    20    15    20   1
    21    21    15   1
    22    17    16   1
    23    18    21   1
    24    19    21   1
    25     1    22   1
    26     2    23   1
    27     3    24   1
    28     4    25   1
    29     5    26   1
    30     6    27   1
    31     7    28   1
    32     8    29   1
    33     9    30   1
    34    10    31   1
    35    11    32   1
    36    11    33   1
    37    12    34   1
    38    12    35   1
    39    13    36   1
    40    13    37   1
    41    14    38   1
    42    14    39   1
    43    15    40   1
    44    15    41   1
    45    19    42   1
    46    20    43   1
@<TRIPOS>SUBSTRUCTURE
     1  MOL      2

