@<TRIPOS>MOLECULE
3acw_ligand_040
    43    46
SMALL
GAST_HUCK
****
This file was generated by PARSER (from files_GN.cpp)

@<TRIPOS>ATOM
      1 OAA        56.7190    1.1369   53.1130 O.3         1 MOL      -0.4236
      2 CAB        51.1931   -2.0330   46.7517 C.ar        1 MOL      -0.0563
      3 CAC        51.4531   -0.6582   46.5751 C.ar        1 MOL      -0.0552
      4 CAD        51.7184   -2.7101   47.8698 C.ar        1 MOL      -0.0552
      5 CAE        52.2421    0.0349   47.5078 C.ar        1 MOL      -0.0454
      6 CAF        52.5062   -2.0182   48.8087 C.ar        1 MOL      -0.0454
      7 CAG        53.0051    0.6929   50.6741 C.ar        1 MOL      -0.0261
      8 CAH        54.9667    0.1072   49.3619 C.ar        1 MOL      -0.0261
      9 CAI        53.8224    1.4066   51.5688 C.ar        1 MOL      -0.0390
     10 CAJ        55.7765    0.8041   50.2767 C.ar        1 MOL      -0.0390
     11 CAK        55.0063    4.4968   52.6746 C.3         1 MOL      -0.0152
     12 CAL        56.5594    3.6566   54.4691 C.3         1 MOL      -0.0152
     13 CAM        56.2422    5.2026   52.0241 C.3         1 MOL      -0.0331
     14 CAN        57.7734    4.3052   53.7300 C.3         1 MOL      -0.0331
     15 CAO        57.3198    3.0268   51.6756 C.3         1 MOL      -0.0283
     16 CAP        52.7676   -0.6406   48.6338 C.ar        1 MOL       0.0022
     17 CAQ        53.5736    0.0559   49.5518 C.ar        1 MOL       0.0101
     18 CAR        55.2299    1.5131   51.3809 C.ar        1 MOL      -0.0233
     19 CAS        55.4854    3.2044   53.4186 C.3         1 MOL      -0.0252
     20 NAT        57.4930    4.4017   52.2590 N.4         1 MOL       0.2304
     21 CAU        56.1401    2.2138   52.3670 C.3         1 MOL       0.0922
     22 H1         55.9742    0.5483   53.3641 H           1 MOL       0.1945
     23 H2         50.6242   -2.5329   46.0688 H           1 MOL       0.0663
     24 H3         51.0672   -0.1630   45.7725 H           1 MOL       0.0633
     25 H4         51.5349   -3.7059   47.9941 H           1 MOL       0.0633
     26 H5         52.4342    1.0308   47.3632 H           1 MOL       0.0672
     27 H6         52.8891   -2.5250   49.6129 H           1 MOL       0.0672
     28 H7         51.9982    0.6359   50.8454 H           1 MOL       0.0700
     29 H8         55.3969   -0.3736   48.5680 H           1 MOL       0.0700
     30 H9         53.3672    1.8246   52.3733 H           1 MOL       0.0838
     31 H10        56.7857    0.7714   50.1282 H           1 MOL       0.0838
     32 H11        54.2751    4.2366   51.9053 H           1 MOL       0.0312
     33 H12        54.5115    5.1734   53.3781 H           1 MOL       0.0312
     34 H13        56.1170    4.3778   55.1589 H           1 MOL       0.0312
     35 H14        56.8908    2.8053   55.0692 H           1 MOL       0.0312
     36 H15        56.3633    6.2053   52.4444 H           1 MOL       0.0814
     37 H16        56.0764    5.3267   50.9510 H           1 MOL       0.0814
     38 H17        58.6733    3.7084   53.9019 H           1 MOL       0.0814
     39 H18        57.9715    5.3018   54.1345 H           1 MOL       0.0814
     40 H19        58.2655    2.4843   51.7668 H           1 MOL       0.0725
     41 H20        57.1480    3.1540   50.6056 H           1 MOL       0.0725
     42 H21        54.6591    2.7427   53.9625 H           1 MOL       0.0225
     43 H22        58.2862    4.8533   51.7893 H           1 MOL       0.2025
@<TRIPOS>BOND
     1    21     1   1
     2     3     2  ar
     3     4     2  ar
     4     5     3  ar
     5     6     4  ar
     6    16     5  ar
     7    16     6  ar
     8     9     7  ar
     9     7    17  ar
    10    10     8  ar
    11     8    17  ar
    12    18     9  ar
    13    18    10  ar
    14    13    11   1
    15    11    19   1
    16    14    12   1
    17    12    19   1
    18    20    13   1
    19    20    14   1
    20    15    20   1
    21    21    15   1
    22    17    16   1
    23    18    21   1
    24    19    21   1
    25     1    22   1
    26     2    23   1
    27     3    24   1
    28     4    25   1
    29     5    26   1
    30     6    27   1
    31     7    28   1
    32     8    29   1
    33     9    30   1
    34    10    31   1
    35    11    32   1
    36    11    33   1
    37    12    34   1
    38    12    35   1
    39    13    36   1
    40    13    37   1
    41    14    38   1
    42    14    39   1
    43    15    40   1
    44    15    41   1
    45    19    42   1
    46    20    43   1
@<TRIPOS>SUBSTRUCTURE
     1  MOL      2

