@<TRIPOS>MOLECULE
3acw_ligand_054
    43    46
SMALL
GAST_HUCK
****
This file was generated by PARSER (from files_GN.cpp)

@<TRIPOS>ATOM
      1 OAA        56.5471    1.8706   53.8998 O.3         1 MOL      -0.4236
      2 CAB        53.0711    9.1710   49.7689 C.ar        1 MOL      -0.0563
      3 CAC        53.0254    9.2913   51.1705 C.ar        1 MOL      -0.0552
      4 CAD        53.5798    8.0004   49.1809 C.ar        1 MOL      -0.0552
      5 CAE        53.4941    8.2424   51.9850 C.ar        1 MOL      -0.0454
      6 CAF        54.0439    6.9468   49.9925 C.ar        1 MOL      -0.0454
      7 CAG        53.5271    4.8962   52.4148 C.ar        1 MOL      -0.0261
      8 CAH        55.6786    5.9370   52.8181 C.ar        1 MOL      -0.0261
      9 CAI        53.9081    3.8131   53.2221 C.ar        1 MOL      -0.0390
     10 CAJ        56.0644    4.8323   53.6031 C.ar        1 MOL      -0.0390
     11 CAK        53.5574    2.2784   56.2283 C.3         1 MOL      -0.0152
     12 CAL        55.1311    0.3382   55.8930 C.3         1 MOL      -0.0152
     13 CAM        54.4088    2.6869   57.4762 C.3         1 MOL      -0.0331
     14 CAN        55.9842    0.8301   57.1059 C.3         1 MOL      -0.0331
     15 CAO        56.3771    3.0201   56.0479 C.3         1 MOL      -0.0283
     16 CAP        54.0042    7.0605   51.4015 C.ar        1 MOL       0.0022
     17 CAQ        54.4055    5.9769   52.2130 C.ar        1 MOL       0.0101
     18 CAR        55.1745    3.7574   53.8639 C.ar        1 MOL      -0.0233
     19 CAS        54.4864    1.5727   55.1795 C.3         1 MOL      -0.0252
     20 NAT        55.8499    2.3163   57.2686 N.4         1 MOL       0.2304
     21 CAU        55.6161    2.5872   54.7232 C.3         1 MOL       0.0922
     22 H1         56.0155    1.4944   53.1671 H           1 MOL       0.1945
     23 H2         52.7216    9.9301   49.1779 H           1 MOL       0.0663
     24 H3         52.6343   10.1346   51.5962 H           1 MOL       0.0633
     25 H4         53.5961    7.9072   48.1622 H           1 MOL       0.0633
     26 H5         53.4356    8.3371   53.0025 H           1 MOL       0.0672
     27 H6         54.3962    6.0944   49.5495 H           1 MOL       0.0672
     28 H7         52.5956    4.8839   51.9862 H           1 MOL       0.0700
     29 H8         56.3330    6.7091   52.6871 H           1 MOL       0.0700
     30 H9         53.2197    3.0684   53.3201 H           1 MOL       0.0838
     31 H10        57.0040    4.8346   54.0049 H           1 MOL       0.0838
     32 H11        53.0885    3.1675   55.8013 H           1 MOL       0.0312
     33 H12        52.7512    1.6020   56.5245 H           1 MOL       0.0312
     34 H13        54.3406   -0.3372   56.2373 H           1 MOL       0.0312
     35 H14        55.7528   -0.2241   55.1904 H           1 MOL       0.0312
     36 H15        54.0250    2.1887   58.3713 H           1 MOL       0.0814
     37 H16        54.3281    3.7637   57.6536 H           1 MOL       0.0814
     38 H17        57.0348    0.5671   56.9559 H           1 MOL       0.0814
     39 H18        55.6557    0.3278   58.0202 H           1 MOL       0.0814
     40 H19        57.4485    2.8118   55.9611 H           1 MOL       0.0725
     41 H20        56.2942    4.0953   56.2244 H           1 MOL       0.0725
     42 H21        53.9092    1.1961   54.3348 H           1 MOL       0.0225
     43 H22        56.3922    2.6105   58.0844 H           1 MOL       0.2025
@<TRIPOS>BOND
     1    21     1   1
     2     3     2  ar
     3     4     2  ar
     4     5     3  ar
     5     6     4  ar
     6    16     5  ar
     7    16     6  ar
     8     9     7  ar
     9     7    17  ar
    10    10     8  ar
    11     8    17  ar
    12    18     9  ar
    13    18    10  ar
    14    13    11   1
    15    11    19   1
    16    14    12   1
    17    12    19   1
    18    20    13   1
    19    20    14   1
    20    15    20   1
    21    21    15   1
    22    17    16   1
    23    18    21   1
    24    19    21   1
    25     1    22   1
    26     2    23   1
    27     3    24   1
    28     4    25   1
    29     5    26   1
    30     6    27   1
    31     7    28   1
    32     8    29   1
    33     9    30   1
    34    10    31   1
    35    11    32   1
    36    11    33   1
    37    12    34   1
    38    12    35   1
    39    13    36   1
    40    13    37   1
    41    14    38   1
    42    14    39   1
    43    15    40   1
    44    15    41   1
    45    19    42   1
    46    20    43   1
@<TRIPOS>SUBSTRUCTURE
     1  MOL      2

