@<TRIPOS>MOLECULE
3acw_ligand_052
    43    46
SMALL
GAST_HUCK
****
This file was generated by PARSER (from files_GN.cpp)

@<TRIPOS>ATOM
      1 OAA        53.0701    6.7570   49.6254 O.3         1 MOL      -0.4236
      2 CAB        57.1960   13.7280   53.8094 C.ar        1 MOL      -0.0563
      3 CAC        57.8501   13.0250   52.7850 C.ar        1 MOL      -0.0552
      4 CAD        55.9706   13.2561   54.3191 C.ar        1 MOL      -0.0552
      5 CAE        57.2864   11.8423   52.2722 C.ar        1 MOL      -0.0454
      6 CAF        55.4071   12.0738   53.8044 C.ar        1 MOL      -0.0454
      7 CAG        55.7458    9.6845   50.9562 C.ar        1 MOL      -0.0261
      8 CAH        54.7073    9.2824   53.1103 C.ar        1 MOL      -0.0261
      9 CAI        55.2296    8.4700   50.4851 C.ar        1 MOL      -0.0390
     10 CAJ        54.1790    8.0720   52.6350 C.ar        1 MOL      -0.0390
     11 CAK        53.8636    4.6663   52.7181 C.3         1 MOL      -0.0152
     12 CAL        52.3270    4.2969   50.7597 C.3         1 MOL      -0.0152
     13 CAM        54.9230    3.7807   51.9757 C.3         1 MOL      -0.0331
     14 CAN        53.4636    3.5160   50.0116 C.3         1 MOL      -0.0331
     15 CAO        55.0310    5.4138   50.1433 C.3         1 MOL      -0.0283
     16 CAP        56.0557   11.3401   52.7751 C.ar        1 MOL       0.0022
     17 CAQ        55.5052   10.1200   52.2842 C.ar        1 MOL       0.0101
     18 CAR        54.4363    7.6211   51.3092 C.ar        1 MOL      -0.0233
     19 CAS        52.9840    5.4102   51.6520 C.3         1 MOL      -0.0252
     20 NAT        54.8158    3.9638   50.4884 N.4         1 MOL       0.2304
     21 CAU        53.8883    6.3388   50.7326 C.3         1 MOL       0.0922
     22 H1         52.2529    7.1261   50.0259 H           1 MOL       0.1945
     23 H2         57.6079   14.5830   54.1884 H           1 MOL       0.0663
     24 H3         58.7399   13.3655   52.4185 H           1 MOL       0.0633
     25 H4         55.4968   13.7654   55.0622 H           1 MOL       0.0633
     26 H5         57.7891   11.3369   51.5371 H           1 MOL       0.0672
     27 H6         54.5083   11.7542   54.1762 H           1 MOL       0.0672
     28 H7         56.2932   10.2668   50.3142 H           1 MOL       0.0700
     29 H8         54.5103    9.5503   54.0821 H           1 MOL       0.0700
     30 H9         55.4230    8.1941   49.5122 H           1 MOL       0.0838
     31 H10        53.6043    7.5078   53.2708 H           1 MOL       0.0838
     32 H11        54.3862    5.3900   53.3610 H           1 MOL       0.0312
     33 H12        53.2189    4.0301   53.3506 H           1 MOL       0.0312
     34 H13        51.7532    3.6069   51.3848 H           1 MOL       0.0312
     35 H14        51.6213    4.7265   50.0435 H           1 MOL       0.0312
     36 H15        54.7732    2.7258   52.2242 H           1 MOL       0.0814
     37 H16        55.9330    4.0404   52.3056 H           1 MOL       0.0814
     38 H17        53.3749    3.6824   48.9345 H           1 MOL       0.0814
     39 H18        53.3515    2.4397   50.1752 H           1 MOL       0.0814
     40 H19        55.0956    5.5109   49.0550 H           1 MOL       0.0725
     41 H20        56.0069    5.7188   50.5254 H           1 MOL       0.0725
     42 H21        52.1920    5.9873   52.1290 H           1 MOL       0.0225
     43 H22        55.5387    3.4050   50.0265 H           1 MOL       0.2025
@<TRIPOS>BOND
     1    21     1   1
     2     3     2  ar
     3     4     2  ar
     4     5     3  ar
     5     6     4  ar
     6    16     5  ar
     7    16     6  ar
     8     9     7  ar
     9     7    17  ar
    10    10     8  ar
    11     8    17  ar
    12    18     9  ar
    13    18    10  ar
    14    13    11   1
    15    11    19   1
    16    14    12   1
    17    12    19   1
    18    20    13   1
    19    20    14   1
    20    15    20   1
    21    21    15   1
    22    17    16   1
    23    18    21   1
    24    19    21   1
    25     1    22   1
    26     2    23   1
    27     3    24   1
    28     4    25   1
    29     5    26   1
    30     6    27   1
    31     7    28   1
    32     8    29   1
    33     9    30   1
    34    10    31   1
    35    11    32   1
    36    11    33   1
    37    12    34   1
    38    12    35   1
    39    13    36   1
    40    13    37   1
    41    14    38   1
    42    14    39   1
    43    15    40   1
    44    15    41   1
    45    19    42   1
    46    20    43   1
@<TRIPOS>SUBSTRUCTURE
     1  MOL      2

