@<TRIPOS>MOLECULE
3acw_ligand_024
    43    46
SMALL
GAST_HUCK
****
This file was generated by PARSER (from files_GN.cpp)

@<TRIPOS>ATOM
      1 OAA        58.8453   12.2778   52.0858 O.3         1 MOL      -0.4236
      2 CAB        54.8675    4.0505   53.1021 C.ar        1 MOL      -0.0563
      3 CAC        56.2128    4.4255   53.2296 C.ar        1 MOL      -0.0552
      4 CAD        53.9026    5.0183   52.7864 C.ar        1 MOL      -0.0552
      5 CAE        56.5912    5.7643   53.0327 C.ar        1 MOL      -0.0454
      6 CAF        54.2796    6.3604   52.6134 C.ar        1 MOL      -0.0454
      7 CAG        57.1393    8.7052   53.2224 C.ar        1 MOL      -0.0261
      8 CAH        55.3670    8.9886   51.6158 C.ar        1 MOL      -0.0261
      9 CAI        57.5823   10.0154   52.9630 C.ar        1 MOL      -0.0390
     10 CAJ        55.8055   10.3035   51.3659 C.ar        1 MOL      -0.0390
     11 CAK        55.2207   13.4429   52.3214 C.3         1 MOL      -0.0152
     12 CAL        57.3691   14.7062   52.5616 C.3         1 MOL      -0.0152
     13 CAM        55.1422   13.8749   50.8170 C.3         1 MOL      -0.0331
     14 CAN        57.2177   15.1706   51.0738 C.3         1 MOL      -0.0331
     15 CAO        57.3139   12.8354   50.2924 C.3         1 MOL      -0.0283
     16 CAP        55.6352    6.7728   52.7320 C.ar        1 MOL       0.0022
     17 CAQ        56.0368    8.1420   52.5336 C.ar        1 MOL       0.0101
     18 CAR        56.9476   10.8478   52.0058 C.ar        1 MOL      -0.0233
     19 CAS        56.7238   13.2862   52.7342 C.3         1 MOL      -0.0252
     20 NAT        56.5214   14.1145   50.2671 N.4         1 MOL       0.2304
     21 CAU        57.4411   12.2630   51.7677 C.3         1 MOL       0.0922
     22 H1         59.2710   11.6671   51.4483 H           1 MOL       0.1945
     23 H2         54.5928    3.0784   53.2363 H           1 MOL       0.0663
     24 H3         56.9215    3.7271   53.4582 H           1 MOL       0.0633
     25 H4         52.9189    4.7501   52.6885 H           1 MOL       0.0633
     26 H5         57.5868    5.9831   53.0965 H           1 MOL       0.0672
     27 H6         53.5363    7.0338   52.4094 H           1 MOL       0.0672
     28 H7         57.6359    8.1713   53.9442 H           1 MOL       0.0700
     29 H8         54.5544    8.6619   51.0946 H           1 MOL       0.0700
     30 H9         58.3900   10.3539   53.4927 H           1 MOL       0.0838
     31 H10        55.2650   10.8611   50.7071 H           1 MOL       0.0838
     32 H11        54.6786   12.5088   52.4839 H           1 MOL       0.0312
     33 H12        54.7446   14.2005   52.9504 H           1 MOL       0.0312
     34 H13        56.8785   15.4236   53.2253 H           1 MOL       0.0312
     35 H14        58.4228   14.6771   52.8462 H           1 MOL       0.0312
     36 H15        54.5433   14.7842   50.7183 H           1 MOL       0.0814
     37 H16        54.6376   13.0995   50.2347 H           1 MOL       0.0814
     38 H17        58.1951   15.3794   50.6345 H           1 MOL       0.0814
     39 H18        56.6473   16.1029   51.0264 H           1 MOL       0.0814
     40 H19        58.3006   13.0361   49.8682 H           1 MOL       0.0725
     41 H20        56.8710   12.1224   49.5960 H           1 MOL       0.0725
     42 H21        56.8037   12.9643   53.7774 H           1 MOL       0.0225
     43 H22        56.4674   14.4418   49.3013 H           1 MOL       0.2025
@<TRIPOS>BOND
     1    21     1   1
     2     3     2  ar
     3     4     2  ar
     4     5     3  ar
     5     6     4  ar
     6    16     5  ar
     7    16     6  ar
     8     9     7  ar
     9     7    17  ar
    10    10     8  ar
    11     8    17  ar
    12    18     9  ar
    13    18    10  ar
    14    13    11   1
    15    11    19   1
    16    14    12   1
    17    12    19   1
    18    20    13   1
    19    20    14   1
    20    15    20   1
    21    21    15   1
    22    17    16   1
    23    18    21   1
    24    19    21   1
    25     1    22   1
    26     2    23   1
    27     3    24   1
    28     4    25   1
    29     5    26   1
    30     6    27   1
    31     7    28   1
    32     8    29   1
    33     9    30   1
    34    10    31   1
    35    11    32   1
    36    11    33   1
    37    12    34   1
    38    12    35   1
    39    13    36   1
    40    13    37   1
    41    14    38   1
    42    14    39   1
    43    15    40   1
    44    15    41   1
    45    19    42   1
    46    20    43   1
@<TRIPOS>SUBSTRUCTURE
     1  MOL      2

