@<TRIPOS>MOLECULE
3acw_ligand_028
    43    46
SMALL
GAST_HUCK
****
This file was generated by PARSER (from files_GN.cpp)

@<TRIPOS>ATOM
      1 OAA        53.3841   11.4334   51.5791 O.3         1 MOL      -0.4236
      2 CAB        52.8707    3.4200   47.3075 C.ar        1 MOL      -0.0563
      3 CAC        51.8754    4.1773   47.9523 C.ar        1 MOL      -0.0552
      4 CAD        54.2015    3.8774   47.2984 C.ar        1 MOL      -0.0552
      5 CAE        52.2091    5.3894   48.5797 C.ar        1 MOL      -0.0454
      6 CAF        54.5367    5.0837   47.9386 C.ar        1 MOL      -0.0454
      7 CAG        53.2338    8.2803   48.8900 C.ar        1 MOL      -0.0261
      8 CAH        54.8597    7.1263   50.2538 C.ar        1 MOL      -0.0261
      9 CAI        53.5252    9.4778   49.5648 C.ar        1 MOL      -0.0390
     10 CAJ        55.1522    8.3297   50.9258 C.ar        1 MOL      -0.0390
     11 CAK        57.0082   11.3391   50.3500 C.3         1 MOL      -0.0152
     12 CAL        55.5643   13.2663   51.0643 C.3         1 MOL      -0.0152
     13 CAM        57.5998   11.2768   51.8000 C.3         1 MOL      -0.0331
     14 CAN        56.1801   13.1674   52.5019 C.3         1 MOL      -0.0331
     15 CAO        55.3773   10.8590   52.7739 C.3         1 MOL      -0.0283
     16 CAP        53.5460    5.8604   48.5875 C.ar        1 MOL       0.0022
     17 CAQ        53.8779    7.0773   49.2443 C.ar        1 MOL       0.0101
     18 CAR        54.4558    9.5347   50.6363 C.ar        1 MOL      -0.0233
     19 CAS        55.5208   11.8374   50.4237 C.3         1 MOL      -0.0252
     20 NAT        56.5852   11.7492   52.8042 N.4         1 MOL       0.2304
     21 CAU        54.6854   10.8598   51.3426 C.3         1 MOL       0.0922
     22 H1         53.0177   11.6926   50.7080 H           1 MOL       0.1945
     23 H2         52.6286    2.5381   46.8527 H           1 MOL       0.0663
     24 H3         50.9114    3.8372   47.9698 H           1 MOL       0.0633
     25 H4         54.9245    3.3267   46.8309 H           1 MOL       0.0633
     26 H5         51.4699    5.9161   49.0567 H           1 MOL       0.0672
     27 H6         55.5113    5.3982   47.9214 H           1 MOL       0.0672
     28 H7         52.5493    8.2988   48.1261 H           1 MOL       0.0700
     29 H8         55.3667    6.2782   50.5256 H           1 MOL       0.0700
     30 H9         53.0351   10.3181   49.2534 H           1 MOL       0.0838
     31 H10        55.8988    8.3018   51.6102 H           1 MOL       0.0838
     32 H11        57.0549   10.3553   49.8788 H           1 MOL       0.0312
     33 H12        57.5991   12.0210   49.7289 H           1 MOL       0.0312
     34 H13        56.1701   13.9356   50.4435 H           1 MOL       0.0312
     35 H14        54.5574   13.6917   51.1079 H           1 MOL       0.0312
     36 H15        58.5005   11.8967   51.8605 H           1 MOL       0.0814
     37 H16        57.9029   10.2499   52.0343 H           1 MOL       0.0814
     38 H17        55.4489   13.5086   53.2405 H           1 MOL       0.0814
     39 H18        57.0469   13.8275   52.5852 H           1 MOL       0.0814
     40 H19        54.6868   11.2067   53.5471 H           1 MOL       0.0725
     41 H20        55.6618    9.8684   53.1141 H           1 MOL       0.0725
     42 H21        55.0956   11.8994   49.4175 H           1 MOL       0.0225
     43 H22        57.0075   11.7193   53.7357 H           1 MOL       0.2025
@<TRIPOS>BOND
     1    21     1   1
     2     3     2  ar
     3     4     2  ar
     4     5     3  ar
     5     6     4  ar
     6    16     5  ar
     7    16     6  ar
     8     9     7  ar
     9     7    17  ar
    10    10     8  ar
    11     8    17  ar
    12    18     9  ar
    13    18    10  ar
    14    13    11   1
    15    11    19   1
    16    14    12   1
    17    12    19   1
    18    20    13   1
    19    20    14   1
    20    15    20   1
    21    21    15   1
    22    17    16   1
    23    18    21   1
    24    19    21   1
    25     1    22   1
    26     2    23   1
    27     3    24   1
    28     4    25   1
    29     5    26   1
    30     6    27   1
    31     7    28   1
    32     8    29   1
    33     9    30   1
    34    10    31   1
    35    11    32   1
    36    11    33   1
    37    12    34   1
    38    12    35   1
    39    13    36   1
    40    13    37   1
    41    14    38   1
    42    14    39   1
    43    15    40   1
    44    15    41   1
    45    19    42   1
    46    20    43   1
@<TRIPOS>SUBSTRUCTURE
     1  MOL      2

