@<TRIPOS>MOLECULE
3acw_ligand_038
    43    46
SMALL
GAST_HUCK
****
This file was generated by PARSER (from files_GN.cpp)

@<TRIPOS>ATOM
      1 OAA        57.9304   16.3952   51.1097 O.3         1 MOL      -0.4236
      2 CAB        51.3332   10.5253   53.6830 C.ar        1 MOL      -0.0563
      3 CAC        51.6825   11.4458   54.6892 C.ar        1 MOL      -0.0552
      4 CAD        51.9317   10.6205   52.4140 C.ar        1 MOL      -0.0552
      5 CAE        52.6056   12.4750   54.4189 C.ar        1 MOL      -0.0454
      6 CAF        52.8729   11.6323   52.1497 C.ar        1 MOL      -0.0454
      7 CAG        54.9692   14.2108   53.8996 C.ar        1 MOL      -0.0261
      8 CAH        54.3496   14.1569   51.5629 C.ar        1 MOL      -0.0261
      9 CAI        55.8699   15.2657   53.6415 C.ar        1 MOL      -0.0390
     10 CAJ        55.2351   15.2212   51.3145 C.ar        1 MOL      -0.0390
     11 CAK        56.8777   18.4953   54.0961 C.3         1 MOL      -0.0152
     12 CAL        58.8472   18.6481   52.5540 C.3         1 MOL      -0.0152
     13 CAM        56.1869   19.6188   53.2524 C.3         1 MOL      -0.0331
     14 CAN        58.0886   19.7134   51.6975 C.3         1 MOL      -0.0331
     15 CAO        56.2045   18.1732   51.2775 C.3         1 MOL      -0.0283
     16 CAP        53.2250   12.5838   53.1446 C.ar        1 MOL       0.0022
     17 CAQ        54.1755   13.6389   52.8692 C.ar        1 MOL       0.0101
     18 CAR        56.0078   15.8220   52.3445 C.ar        1 MOL      -0.0233
     19 CAS        57.8054   17.6395   53.1676 C.3         1 MOL      -0.0252
     20 NAT        56.6048   19.5175   51.8154 N.4         1 MOL       0.2304
     21 CAU        56.9487   16.9718   52.0037 C.3         1 MOL       0.0922
     22 H1         57.4759   15.7187   50.5504 H           1 MOL       0.1945
     23 H2         50.6492    9.7868   53.8808 H           1 MOL       0.0663
     24 H3         51.2561   11.3725   55.6182 H           1 MOL       0.0633
     25 H4         51.6859    9.9459   51.6904 H           1 MOL       0.0633
     26 H5         52.8062   13.1483   55.1571 H           1 MOL       0.0672
     27 H6         53.3092   11.6584   51.2273 H           1 MOL       0.0672
     28 H7         54.8997   13.8497   54.8551 H           1 MOL       0.0700
     29 H8         53.7987   13.7854   50.7883 H           1 MOL       0.0700
     30 H9         56.4292   15.6077   54.4180 H           1 MOL       0.0838
     31 H10        55.3057   15.5697   50.3573 H           1 MOL       0.0838
     32 H11        56.1283   17.8584   54.5648 H           1 MOL       0.0312
     33 H12        57.4718   18.9480   54.8963 H           1 MOL       0.0312
     34 H13        59.4076   19.1425   53.3538 H           1 MOL       0.0312
     35 H14        59.5814   18.1314   51.9332 H           1 MOL       0.0312
     36 H15        56.4523   20.6043   53.6443 H           1 MOL       0.0814
     37 H16        55.1005   19.5351   53.3243 H           1 MOL       0.0814
     38 H17        58.3822   19.6346   50.6470 H           1 MOL       0.0814
     39 H18        58.3564   20.7215   52.0274 H           1 MOL       0.0814
     40 H19        56.3965   18.1535   50.2032 H           1 MOL       0.0725
     41 H20        55.1268   18.0742   51.3906 H           1 MOL       0.0725
     42 H21        58.3508   16.8860   53.7462 H           1 MOL       0.0225
     43 H22        56.1374   20.2475   51.2755 H           1 MOL       0.2025
@<TRIPOS>BOND
     1    21     1   1
     2     3     2  ar
     3     4     2  ar
     4     5     3  ar
     5     6     4  ar
     6    16     5  ar
     7    16     6  ar
     8     9     7  ar
     9     7    17  ar
    10    10     8  ar
    11     8    17  ar
    12    18     9  ar
    13    18    10  ar
    14    13    11   1
    15    11    19   1
    16    14    12   1
    17    12    19   1
    18    20    13   1
    19    20    14   1
    20    15    20   1
    21    21    15   1
    22    17    16   1
    23    18    21   1
    24    19    21   1
    25     1    22   1
    26     2    23   1
    27     3    24   1
    28     4    25   1
    29     5    26   1
    30     6    27   1
    31     7    28   1
    32     8    29   1
    33     9    30   1
    34    10    31   1
    35    11    32   1
    36    11    33   1
    37    12    34   1
    38    12    35   1
    39    13    36   1
    40    13    37   1
    41    14    38   1
    42    14    39   1
    43    15    40   1
    44    15    41   1
    45    19    42   1
    46    20    43   1
@<TRIPOS>SUBSTRUCTURE
     1  MOL      2

