@<TRIPOS>MOLECULE
3acw_ligand_030
    43    46
SMALL
GAST_HUCK
****
This file was generated by PARSER (from files_GN.cpp)

@<TRIPOS>ATOM
      1 OAA        57.9493   12.8916   52.7057 O.3         1 MOL      -0.4236
      2 CAB        57.0714   21.9038   51.9948 C.ar        1 MOL      -0.0563
      3 CAC        58.0509   21.0950   51.3900 C.ar        1 MOL      -0.0552
      4 CAD        56.0169   21.3110   52.7145 C.ar        1 MOL      -0.0552
      5 CAE        57.9989   19.6947   51.5352 C.ar        1 MOL      -0.0454
      6 CAF        55.9612   19.9087   52.8553 C.ar        1 MOL      -0.0454
      7 CAG        56.1865   16.9676   51.3680 C.ar        1 MOL      -0.0261
      8 CAH        57.5326   16.9629   53.3931 C.ar        1 MOL      -0.0261
      9 CAI        56.1168   15.5650   51.4185 C.ar        1 MOL      -0.0390
     10 CAJ        57.4174   15.5609   53.4616 C.ar        1 MOL      -0.0390
     11 CAK        54.3181   12.7279   51.5343 C.3         1 MOL      -0.0152
     12 CAL        56.1066   10.9755   51.7212 C.3         1 MOL      -0.0152
     13 CAM        53.7696   12.2686   52.9240 C.3         1 MOL      -0.0331
     14 CAN        55.5470   10.5868   53.1304 C.3         1 MOL      -0.0331
     15 CAO        55.8848   12.8769   54.0006 C.3         1 MOL      -0.0283
     16 CAP        56.9623   19.0905   52.2805 C.ar        1 MOL       0.0022
     17 CAQ        56.8878   17.6796   52.3619 C.ar        1 MOL       0.0101
     18 CAR        56.6746   14.8256   52.4963 C.ar        1 MOL      -0.0233
     19 CAS        55.8722   12.5062   51.4857 C.3         1 MOL      -0.0252
     20 NAT        54.8910   11.7688   53.7868 N.4         1 MOL       0.2304
     21 CAU        56.5819   13.3225   52.6476 C.3         1 MOL       0.0922
     22 H1         58.3370   13.0983   51.8269 H           1 MOL       0.1945
     23 H2         57.1119   22.9198   51.8875 H           1 MOL       0.0663
     24 H3         58.7915   21.5230   50.8295 H           1 MOL       0.0633
     25 H4         55.2801   21.8991   53.1145 H           1 MOL       0.0633
     26 H5         58.7093   19.1189   51.0759 H           1 MOL       0.0672
     27 H6         55.1675   19.4920   53.3476 H           1 MOL       0.0672
     28 H7         55.7312   17.4607   50.5946 H           1 MOL       0.0700
     29 H8         58.0859   17.4575   54.1025 H           1 MOL       0.0700
     30 H9         55.6499   15.1045   50.6394 H           1 MOL       0.0838
     31 H10        57.8861   15.0714   54.2292 H           1 MOL       0.0838
     32 H11        54.0618   13.7736   51.3789 H           1 MOL       0.0312
     33 H12        53.8431   12.1514   50.7360 H           1 MOL       0.0312
     34 H13        55.6042   10.3986   50.9416 H           1 MOL       0.0312
     35 H14        57.1698   10.7311   51.6529 H           1 MOL       0.0312
     36 H15        53.0291   11.4744   52.7911 H           1 MOL       0.0814
     37 H16        53.2524   13.0995   53.4136 H           1 MOL       0.0814
     38 H17        56.3535   10.2118   53.7659 H           1 MOL       0.0814
     39 H18        54.8233    9.7733   53.0279 H           1 MOL       0.0814
     40 H19        56.6253   12.5413   54.7325 H           1 MOL       0.0725
     41 H20        55.3641   13.7181   54.4687 H           1 MOL       0.0725
     42 H21        56.2752   12.7757   50.5042 H           1 MOL       0.0225
     43 H22        54.5131   11.4807   54.6909 H           1 MOL       0.2025
@<TRIPOS>BOND
     1    21     1   1
     2     3     2  ar
     3     4     2  ar
     4     5     3  ar
     5     6     4  ar
     6    16     5  ar
     7    16     6  ar
     8     9     7  ar
     9     7    17  ar
    10    10     8  ar
    11     8    17  ar
    12    18     9  ar
    13    18    10  ar
    14    13    11   1
    15    11    19   1
    16    14    12   1
    17    12    19   1
    18    20    13   1
    19    20    14   1
    20    15    20   1
    21    21    15   1
    22    17    16   1
    23    18    21   1
    24    19    21   1
    25     1    22   1
    26     2    23   1
    27     3    24   1
    28     4    25   1
    29     5    26   1
    30     6    27   1
    31     7    28   1
    32     8    29   1
    33     9    30   1
    34    10    31   1
    35    11    32   1
    36    11    33   1
    37    12    34   1
    38    12    35   1
    39    13    36   1
    40    13    37   1
    41    14    38   1
    42    14    39   1
    43    15    40   1
    44    15    41   1
    45    19    42   1
    46    20    43   1
@<TRIPOS>SUBSTRUCTURE
     1  MOL      2

