@<TRIPOS>MOLECULE
3acw_ligand_018
    43    46
SMALL
GAST_HUCK
****
This file was generated by PARSER (from files_GN.cpp)

@<TRIPOS>ATOM
      1 OAA        57.7405    1.9265   56.1867 O.3         1 MOL      -0.4236
      2 CAB        54.1913    7.2888   49.8668 C.ar        1 MOL      -0.0563
      3 CAC        53.8664    7.7162   51.1680 C.ar        1 MOL      -0.0552
      4 CAD        54.9472    6.1159   49.6840 C.ar        1 MOL      -0.0552
      5 CAE        54.2890    6.9735   52.2832 C.ar        1 MOL      -0.0454
      6 CAF        55.3801    5.3714   50.7950 C.ar        1 MOL      -0.0454
      7 CAG        56.7237    5.1205   53.7626 C.ar        1 MOL      -0.0261
      8 CAH        54.5121    4.1176   53.7968 C.ar        1 MOL      -0.0261
      9 CAI        57.0765    4.3576   54.8896 C.ar        1 MOL      -0.0390
     10 CAJ        54.8778    3.3413   54.9105 C.ar        1 MOL      -0.0390
     11 CAK        54.4932    2.3466   58.1693 C.3         1 MOL      -0.0152
     12 CAL        56.4085    0.7399   58.4014 C.3         1 MOL      -0.0152
     13 CAM        55.1541    3.2185   59.2901 C.3         1 MOL      -0.0331
     14 CAN        57.0764    1.6916   59.4510 C.3         1 MOL      -0.0331
     15 CAO        57.1259    3.5907   57.8778 C.3         1 MOL      -0.0283
     16 CAP        55.0488    5.7955   52.1017 C.ar        1 MOL       0.0022
     17 CAQ        55.4266    5.0221   53.2176 C.ar        1 MOL       0.0101
     18 CAR        56.1599    3.4631   55.5029 C.ar        1 MOL      -0.0233
     19 CAS        55.6219    1.6107   57.3564 C.3         1 MOL      -0.0252
     20 NAT        56.6520    3.1132   59.2237 N.4         1 MOL       0.2304
     21 CAU        56.6193    2.6607   56.7004 C.3         1 MOL       0.0922
     22 H1         57.3453    1.2315   55.5967 H           1 MOL       0.1945
     23 H2         53.8771    7.8286   49.0574 H           1 MOL       0.0663
     24 H3         53.3145    8.5676   51.3027 H           1 MOL       0.0633
     25 H4         55.1738    5.7988   48.7387 H           1 MOL       0.0633
     26 H5         54.0376    7.2918   53.2231 H           1 MOL       0.0672
     27 H6         55.9207    4.5172   50.6464 H           1 MOL       0.0672
     28 H7         57.4145    5.7520   53.3460 H           1 MOL       0.0700
     29 H8         53.5752    4.0102   53.3976 H           1 MOL       0.0700
     30 H9         58.0255    4.4571   55.2608 H           1 MOL       0.0838
     31 H10        54.1951    2.6747   55.2642 H           1 MOL       0.0838
     32 H11        53.8904    2.9881   57.5212 H           1 MOL       0.0312
     33 H12        53.8177    1.6078   58.6140 H           1 MOL       0.0312
     34 H13        55.7250    0.0492   58.9054 H           1 MOL       0.0312
     35 H14        57.1686    0.1293   57.9088 H           1 MOL       0.0312
     36 H15        54.7993    2.8982   60.2752 H           1 MOL       0.0814
     37 H16        54.8515    4.2632   59.1704 H           1 MOL       0.0814
     38 H17        58.1674    1.6177   59.3848 H           1 MOL       0.0814
     39 H18        56.8003    1.3825   60.4659 H           1 MOL       0.0814
     40 H19        58.2188    3.6457   57.8793 H           1 MOL       0.0725
     41 H20        56.7747    4.6150   57.7355 H           1 MOL       0.0725
     42 H21        55.1825    0.9571   56.5927 H           1 MOL       0.0225
     43 H22        57.0600    3.7033   59.9540 H           1 MOL       0.2025
@<TRIPOS>BOND
     1    21     1   1
     2     3     2  ar
     3     4     2  ar
     4     5     3  ar
     5     6     4  ar
     6    16     5  ar
     7    16     6  ar
     8     9     7  ar
     9     7    17  ar
    10    10     8  ar
    11     8    17  ar
    12    18     9  ar
    13    18    10  ar
    14    13    11   1
    15    11    19   1
    16    14    12   1
    17    12    19   1
    18    20    13   1
    19    20    14   1
    20    15    20   1
    21    21    15   1
    22    17    16   1
    23    18    21   1
    24    19    21   1
    25     1    22   1
    26     2    23   1
    27     3    24   1
    28     4    25   1
    29     5    26   1
    30     6    27   1
    31     7    28   1
    32     8    29   1
    33     9    30   1
    34    10    31   1
    35    11    32   1
    36    11    33   1
    37    12    34   1
    38    12    35   1
    39    13    36   1
    40    13    37   1
    41    14    38   1
    42    14    39   1
    43    15    40   1
    44    15    41   1
    45    19    42   1
    46    20    43   1
@<TRIPOS>SUBSTRUCTURE
     1  MOL      2

