@<TRIPOS>MOLECULE
3acw_ligand_011
    43    46
SMALL
GAST_HUCK
****
This file was generated by PARSER (from files_GN.cpp)

@<TRIPOS>ATOM
      1 OAA        56.5727    1.7798   54.4982 O.3         1 MOL      -0.4236
      2 CAB        47.8356    0.1487   56.1811 C.ar        1 MOL      -0.0563
      3 CAC        48.8795    0.2210   57.1212 C.ar        1 MOL      -0.0552
      4 CAD        48.0697    0.5030   54.8408 C.ar        1 MOL      -0.0552
      5 CAE        50.1601    0.6440   56.7210 C.ar        1 MOL      -0.0454
      6 CAF        49.3506    0.9167   54.4354 C.ar        1 MOL      -0.0454
      7 CAG        52.4137    0.6105   54.0028 C.ar        1 MOL      -0.0261
      8 CAH        52.3100    2.5209   55.4907 C.ar        1 MOL      -0.0261
      9 CAI        53.7083    0.9932   53.6095 C.ar        1 MOL      -0.0390
     10 CAJ        53.5852    2.9189   55.0592 C.ar        1 MOL      -0.0390
     11 CAK        55.3091    4.9525   52.8143 C.3         1 MOL      -0.0152
     12 CAL        57.6368    4.3065   53.5352 C.3         1 MOL      -0.0152
     13 CAM        55.6951    4.5052   51.3637 C.3         1 MOL      -0.0331
     14 CAN        57.9435    3.8052   52.0894 C.3         1 MOL      -0.0331
     15 CAO        56.0703    2.2134   52.1460 C.3         1 MOL      -0.0283
     16 CAP        50.4091    0.9825   55.3699 C.ar        1 MOL       0.0022
     17 CAQ        51.6996    1.3731   54.9501 C.ar        1 MOL       0.0101
     18 CAR        54.3153    2.1867   54.0831 C.ar        1 MOL      -0.0233
     19 CAS        56.1181    4.0937   53.8460 C.3         1 MOL      -0.0252
     20 NAT        56.6801    3.3706   51.4091 N.4         1 MOL       0.2304
     21 CAU        55.7215    2.5693   53.6565 C.3         1 MOL       0.0922
     22 H1         56.2858    1.9597   55.4196 H           1 MOL       0.1945
     23 H2         46.9072   -0.1640   56.4709 H           1 MOL       0.0663
     24 H3         48.7107   -0.0432   58.0940 H           1 MOL       0.0633
     25 H4         47.3105    0.4590   54.1584 H           1 MOL       0.0633
     26 H5         50.9119    0.6806   57.4157 H           1 MOL       0.0672
     27 H6         49.5060    1.1758   53.4574 H           1 MOL       0.0672
     28 H7         52.0039   -0.2407   53.6083 H           1 MOL       0.0700
     29 H8         51.8232    3.0880   56.1898 H           1 MOL       0.0700
     30 H9         54.2018    0.3747   52.9632 H           1 MOL       0.0838
     31 H10        53.9647    3.7570   55.4932 H           1 MOL       0.0838
     32 H11        54.2350    4.8230   52.9715 H           1 MOL       0.0312
     33 H12        55.5322    6.0137   52.9530 H           1 MOL       0.0312
     34 H13        57.8828    5.3694   53.6215 H           1 MOL       0.0312
     35 H14        58.2535    3.7724   54.2624 H           1 MOL       0.0312
     36 H15        56.1276    5.3451   50.8137 H           1 MOL       0.0814
     37 H16        54.8004    4.1973   50.8150 H           1 MOL       0.0814
     38 H17        58.6515    2.9734   52.1254 H           1 MOL       0.0814
     39 H18        58.4183    4.6018   51.5118 H           1 MOL       0.0814
     40 H19        56.7545    1.3596   52.1005 H           1 MOL       0.0725
     41 H20        55.1844    1.9193   51.5786 H           1 MOL       0.0725
     42 H21        55.9498    4.4445   54.8636 H           1 MOL       0.0225
     43 H22        56.9008    3.0786   50.4549 H           1 MOL       0.2025
@<TRIPOS>BOND
     1    21     1   1
     2     3     2  ar
     3     4     2  ar
     4     5     3  ar
     5     6     4  ar
     6    16     5  ar
     7    16     6  ar
     8     9     7  ar
     9     7    17  ar
    10    10     8  ar
    11     8    17  ar
    12    18     9  ar
    13    18    10  ar
    14    13    11   1
    15    11    19   1
    16    14    12   1
    17    12    19   1
    18    20    13   1
    19    20    14   1
    20    15    20   1
    21    21    15   1
    22    17    16   1
    23    18    21   1
    24    19    21   1
    25     1    22   1
    26     2    23   1
    27     3    24   1
    28     4    25   1
    29     5    26   1
    30     6    27   1
    31     7    28   1
    32     8    29   1
    33     9    30   1
    34    10    31   1
    35    11    32   1
    36    11    33   1
    37    12    34   1
    38    12    35   1
    39    13    36   1
    40    13    37   1
    41    14    38   1
    42    14    39   1
    43    15    40   1
    44    15    41   1
    45    19    42   1
    46    20    43   1
@<TRIPOS>SUBSTRUCTURE
     1  MOL      2

