@<TRIPOS>MOLECULE
3acw_ligand_016
    43    46
SMALL
GAST_HUCK
****
This file was generated by PARSER (from files_GN.cpp)

@<TRIPOS>ATOM
      1 OAA        56.9165   12.5921   49.9079 O.3         1 MOL      -0.4236
      2 CAB        52.0175    5.1079   49.7372 C.ar        1 MOL      -0.0563
      3 CAC        52.5230    5.3723   51.0237 C.ar        1 MOL      -0.0552
      4 CAD        52.1219    6.0806   48.7250 C.ar        1 MOL      -0.0552
      5 CAE        53.1319    6.6104   51.2993 C.ar        1 MOL      -0.0454
      6 CAF        52.7138    7.3248   49.0043 C.ar        1 MOL      -0.0454
      7 CAG        55.2484    8.8909   50.7592 C.ar        1 MOL      -0.0261
      8 CAH        53.1254   10.0446   50.5769 C.ar        1 MOL      -0.0261
      9 CAI        55.8981   10.1258   50.9264 C.ar        1 MOL      -0.0390
     10 CAJ        53.7778   11.2791   50.7714 C.ar        1 MOL      -0.0390
     11 CAK        55.8349   12.8788   53.5469 C.3         1 MOL      -0.0152
     12 CAL        57.7287   14.0038   52.3317 C.3         1 MOL      -0.0152
     13 CAM        54.9368   14.1388   53.3163 C.3         1 MOL      -0.0331
     14 CAN        56.8392   15.2861   52.2532 C.3         1 MOL      -0.0331
     15 CAO        55.2190   14.0547   50.8701 C.3         1 MOL      -0.0283
     16 CAP        53.2239    7.6015   50.2941 C.ar        1 MOL       0.0022
     17 CAQ        53.8564    8.8395   50.5548 C.ar        1 MOL       0.0101
     18 CAR        55.1895   11.3595   50.9065 C.ar        1 MOL      -0.0233
     19 CAS        56.8159   12.7314   52.3388 C.3         1 MOL      -0.0252
     20 NAT        55.3963   14.9015   52.1039 N.4         1 MOL       0.2304
     21 CAU        55.9799   12.6577   50.9965 C.3         1 MOL       0.0922
     22 H1         56.5164   11.9963   49.2357 H           1 MOL       0.1945
     23 H2         51.5860    4.2026   49.5320 H           1 MOL       0.0663
     24 H3         52.4548    4.6614   51.7543 H           1 MOL       0.0633
     25 H4         51.7756    5.8792   47.7850 H           1 MOL       0.0633
     26 H5         53.5044    6.7857   52.2362 H           1 MOL       0.0672
     27 H6         52.7943    8.0183   48.2532 H           1 MOL       0.0672
     28 H7         55.8028    8.0327   50.7534 H           1 MOL       0.0700
     29 H8         52.1070   10.0330   50.4538 H           1 MOL       0.0700
     30 H9         56.9164   10.1187   51.0325 H           1 MOL       0.0838
     31 H10        53.1959   12.1141   50.8056 H           1 MOL       0.0838
     32 H11        55.2206   11.9822   53.6519 H           1 MOL       0.0312
     33 H12        56.4064   12.9913   54.4734 H           1 MOL       0.0312
     34 H13        58.3407   14.0316   53.2352 H           1 MOL       0.0312
     35 H14        58.4098   13.9666   51.4813 H           1 MOL       0.0312
     36 H15        54.9698   14.7891   54.1947 H           1 MOL       0.0814
     37 H16        53.8949   13.8341   53.1896 H           1 MOL       0.0814
     38 H17        57.1520   15.9149   51.4138 H           1 MOL       0.0814
     39 H18        56.9670   15.8862   53.1578 H           1 MOL       0.0814
     40 H19        55.6048   14.6172   50.0126 H           1 MOL       0.0725
     41 H20        54.1498   13.9513   50.6886 H           1 MOL       0.0725
     42 H21        57.4453   11.8493   52.4745 H           1 MOL       0.0225
     43 H22        54.8358   15.7523   52.0123 H           1 MOL       0.2025
@<TRIPOS>BOND
     1    21     1   1
     2     3     2  ar
     3     4     2  ar
     4     5     3  ar
     5     6     4  ar
     6    16     5  ar
     7    16     6  ar
     8     9     7  ar
     9     7    17  ar
    10    10     8  ar
    11     8    17  ar
    12    18     9  ar
    13    18    10  ar
    14    13    11   1
    15    11    19   1
    16    14    12   1
    17    12    19   1
    18    20    13   1
    19    20    14   1
    20    15    20   1
    21    21    15   1
    22    17    16   1
    23    18    21   1
    24    19    21   1
    25     1    22   1
    26     2    23   1
    27     3    24   1
    28     4    25   1
    29     5    26   1
    30     6    27   1
    31     7    28   1
    32     8    29   1
    33     9    30   1
    34    10    31   1
    35    11    32   1
    36    11    33   1
    37    12    34   1
    38    12    35   1
    39    13    36   1
    40    13    37   1
    41    14    38   1
    42    14    39   1
    43    15    40   1
    44    15    41   1
    45    19    42   1
    46    20    43   1
@<TRIPOS>SUBSTRUCTURE
     1  MOL      2

