@<TRIPOS>MOLECULE
3acw_ligand_050
    43    46
SMALL
GAST_HUCK
****
This file was generated by PARSER (from files_GN.cpp)

@<TRIPOS>ATOM
      1 OAA        55.8090   17.5790   50.8466 O.3         1 MOL      -0.4236
      2 CAB        52.7213    9.1464   52.3706 C.ar        1 MOL      -0.0563
      3 CAC        52.0518   10.2336   51.7850 C.ar        1 MOL      -0.0552
      4 CAD        53.9756    9.3346   52.9774 C.ar        1 MOL      -0.0552
      5 CAE        52.6420   11.5113   51.7938 C.ar        1 MOL      -0.0454
      6 CAF        54.5646   10.6151   53.0005 C.ar        1 MOL      -0.0454
      7 CAG        54.8519   13.5659   51.1294 C.ar        1 MOL      -0.0261
      8 CAH        54.7395   13.7074   53.5514 C.ar        1 MOL      -0.0261
      9 CAI        55.3948   14.8578   51.0851 C.ar        1 MOL      -0.0390
     10 CAJ        55.2583   15.0123   53.4942 C.ar        1 MOL      -0.0390
     11 CAK        58.0811   16.7815   53.7843 C.3         1 MOL      -0.0152
     12 CAL        58.2311   18.4918   51.9592 C.3         1 MOL      -0.0152
     13 CAM        57.4331   17.8654   54.7112 C.3         1 MOL      -0.0331
     14 CAN        57.5559   19.5399   52.9031 C.3         1 MOL      -0.0331
     15 CAO        55.5361   18.1426   53.1676 C.3         1 MOL      -0.0283
     16 CAP        53.9054   11.7099   52.3992 C.ar        1 MOL       0.0022
     17 CAQ        54.5021   12.9876   52.3656 C.ar        1 MOL       0.0101
     18 CAR        55.5666   15.6451   52.2565 C.ar        1 MOL      -0.0233
     19 CAS        57.6747   17.0620   52.2967 C.3         1 MOL      -0.0252
     20 NAT        56.6503   18.8528   53.8926 N.4         1 MOL       0.2304
     21 CAU        56.1029   17.0629   52.1599 C.3         1 MOL       0.0922
     22 H1         54.9864   17.1294   50.5454 H           1 MOL       0.1945
     23 H2         52.2953    8.2189   52.3534 H           1 MOL       0.0663
     24 H3         51.1404   10.1016   51.3432 H           1 MOL       0.0633
     25 H4         54.4666    8.5401   53.3933 H           1 MOL       0.0633
     26 H5         52.1443   12.2934   51.3634 H           1 MOL       0.0672
     27 H6         55.4851   10.7350   53.4335 H           1 MOL       0.0672
     28 H7         54.7249   13.0431   50.2612 H           1 MOL       0.0700
     29 H8         54.5170   13.2955   54.4622 H           1 MOL       0.0700
     30 H9         55.6618   15.2252   50.1649 H           1 MOL       0.0838
     31 H10        55.4135   15.4937   54.3792 H           1 MOL       0.0838
     32 H11        57.7704   15.7789   54.0855 H           1 MOL       0.0312
     33 H12        59.1704   16.8160   53.8790 H           1 MOL       0.0312
     34 H13        59.3130   18.5000   52.1002 H           1 MOL       0.0312
     35 H14        58.0420   18.7454   50.9120 H           1 MOL       0.0312
     36 H15        58.2110   18.3872   55.2770 H           1 MOL       0.0814
     37 H16        56.7749   17.3903   55.4457 H           1 MOL       0.0814
     38 H17        56.9793   20.2579   52.3108 H           1 MOL       0.0814
     39 H18        58.3250   20.1070   53.4344 H           1 MOL       0.0814
     40 H19        54.9387   18.8921   52.6452 H           1 MOL       0.0725
     41 H20        54.8546   17.7161   53.8925 H           1 MOL       0.0725
     42 H21        58.1173   16.3243   51.6204 H           1 MOL       0.0225
     43 H22        56.2568   19.5605   54.5160 H           1 MOL       0.2025
@<TRIPOS>BOND
     1    21     1   1
     2     3     2  ar
     3     4     2  ar
     4     5     3  ar
     5     6     4  ar
     6    16     5  ar
     7    16     6  ar
     8     9     7  ar
     9     7    17  ar
    10    10     8  ar
    11     8    17  ar
    12    18     9  ar
    13    18    10  ar
    14    13    11   1
    15    11    19   1
    16    14    12   1
    17    12    19   1
    18    20    13   1
    19    20    14   1
    20    15    20   1
    21    21    15   1
    22    17    16   1
    23    18    21   1
    24    19    21   1
    25     1    22   1
    26     2    23   1
    27     3    24   1
    28     4    25   1
    29     5    26   1
    30     6    27   1
    31     7    28   1
    32     8    29   1
    33     9    30   1
    34    10    31   1
    35    11    32   1
    36    11    33   1
    37    12    34   1
    38    12    35   1
    39    13    36   1
    40    13    37   1
    41    14    38   1
    42    14    39   1
    43    15    40   1
    44    15    41   1
    45    19    42   1
    46    20    43   1
@<TRIPOS>SUBSTRUCTURE
     1  MOL      2

