@<TRIPOS>MOLECULE
3acw_ligand_037
    43    46
SMALL
GAST_HUCK
****
This file was generated by PARSER (from files_GN.cpp)

@<TRIPOS>ATOM
      1 OAA        56.8968    4.7748   51.2983 O.3         1 MOL      -0.4236
      2 CAB        52.7874   12.4766   53.8204 C.ar        1 MOL      -0.0563
      3 CAC        54.0063   11.9369   54.2723 C.ar        1 MOL      -0.0552
      4 CAD        52.0378   11.7978   52.8429 C.ar        1 MOL      -0.0552
      5 CAE        54.4704   10.7117   53.7558 C.ar        1 MOL      -0.0454
      6 CAF        52.5046   10.5791   52.3171 C.ar        1 MOL      -0.0454
      7 CAG        54.1945    7.6083   52.9643 C.ar        1 MOL      -0.0261
      8 CAH        54.7308    8.8048   50.9234 C.ar        1 MOL      -0.0261
      9 CAI        54.6925    6.4235   52.3918 C.ar        1 MOL      -0.0390
     10 CAJ        55.2513    7.6184   50.3735 C.ar        1 MOL      -0.0390
     11 CAK        54.8547    5.1659   48.0917 C.3         1 MOL      -0.0152
     12 CAL        56.8445    3.7231   48.6171 C.3         1 MOL      -0.0152
     13 CAM        53.9446    3.9244   48.3738 C.3         1 MOL      -0.0331
     14 CAN        55.8869    2.5401   48.9749 C.3         1 MOL      -0.0331
     15 CAO        54.7223    3.8647   50.7008 C.3         1 MOL      -0.0283
     16 CAP        53.7186   10.0187   52.7789 C.ar        1 MOL       0.0022
     17 CAQ        54.1982    8.8100   52.2275 C.ar        1 MOL       0.0101
     18 CAR        55.2063    6.3828   51.0709 C.ar        1 MOL      -0.0233
     19 CAS        56.1461    5.0764   48.9796 C.3         1 MOL      -0.0252
     20 NAT        54.5574    3.0621   49.4397 N.4         1 MOL       0.2304
     21 CAU        55.7310    5.0750   50.5106 C.3         1 MOL       0.0922
     22 H1         57.6778    5.0693   50.7815 H           1 MOL       0.1945
     23 H2         52.4455   13.3621   54.2037 H           1 MOL       0.0663
     24 H3         54.5557   12.4355   54.9753 H           1 MOL       0.0633
     25 H4         51.1509   12.1891   52.5171 H           1 MOL       0.0633
     26 H5         55.3681   10.3428   54.0797 H           1 MOL       0.0672
     27 H6         51.9531   10.1023   51.5989 H           1 MOL       0.0672
     28 H7         53.8287    7.5890   53.9149 H           1 MOL       0.0700
     29 H8         54.7699    9.6764   50.3795 H           1 MOL       0.0700
     30 H9         54.6668    5.5734   52.9566 H           1 MOL       0.0838
     31 H10        55.6707    7.6889   49.4496 H           1 MOL       0.0838
     32 H11        54.2957    6.0779   48.3012 H           1 MOL       0.0312
     33 H12        55.1296    5.1992   47.0344 H           1 MOL       0.0312
     34 H13        57.0780    3.7023   47.5481 H           1 MOL       0.0312
     35 H14        57.7908    3.6236   49.1534 H           1 MOL       0.0312
     36 H15        53.8104    3.3423   47.4574 H           1 MOL       0.0814
     37 H16        52.9495    4.2480   48.6891 H           1 MOL       0.0814
     38 H17        56.3373    1.9180   49.7529 H           1 MOL       0.0814
     39 H18        55.7411    1.8995   48.1015 H           1 MOL       0.0814
     40 H19        55.0661    3.1954   51.4950 H           1 MOL       0.0725
     41 H20        53.7330    4.2096   51.0128 H           1 MOL       0.0725
     42 H21        56.8380    5.8929   48.7552 H           1 MOL       0.0225
     43 H22        53.9376    2.2685   49.6263 H           1 MOL       0.2025
@<TRIPOS>BOND
     1    21     1   1
     2     3     2  ar
     3     4     2  ar
     4     5     3  ar
     5     6     4  ar
     6    16     5  ar
     7    16     6  ar
     8     9     7  ar
     9     7    17  ar
    10    10     8  ar
    11     8    17  ar
    12    18     9  ar
    13    18    10  ar
    14    13    11   1
    15    11    19   1
    16    14    12   1
    17    12    19   1
    18    20    13   1
    19    20    14   1
    20    15    20   1
    21    21    15   1
    22    17    16   1
    23    18    21   1
    24    19    21   1
    25     1    22   1
    26     2    23   1
    27     3    24   1
    28     4    25   1
    29     5    26   1
    30     6    27   1
    31     7    28   1
    32     8    29   1
    33     9    30   1
    34    10    31   1
    35    11    32   1
    36    11    33   1
    37    12    34   1
    38    12    35   1
    39    13    36   1
    40    13    37   1
    41    14    38   1
    42    14    39   1
    43    15    40   1
    44    15    41   1
    45    19    42   1
    46    20    43   1
@<TRIPOS>SUBSTRUCTURE
     1  MOL      2

