@<TRIPOS>MOLECULE
3acw_ligand_035
    43    46
SMALL
GAST_HUCK
****
This file was generated by PARSER (from files_GN.cpp)

@<TRIPOS>ATOM
      1 OAA        56.4662   20.2511   55.3148 O.3         1 MOL      -0.4236
      2 CAB        56.2007   11.3001   53.8446 C.ar        1 MOL      -0.0563
      3 CAC        57.3026   11.9301   53.2385 C.ar        1 MOL      -0.0552
      4 CAD        55.2186   12.0726   54.4888 C.ar        1 MOL      -0.0552
      5 CAE        57.4286   13.3311   53.2809 C.ar        1 MOL      -0.0454
      6 CAF        55.3297   13.4756   54.5171 C.ar        1 MOL      -0.0454
      7 CAG        55.6657   16.3001   53.1433 C.ar        1 MOL      -0.0261
      8 CAH        57.4952   16.1836   54.7297 C.ar        1 MOL      -0.0261
      9 CAI        55.7545   17.7017   53.1515 C.ar        1 MOL      -0.0390
     10 CAJ        57.5744   17.5882   54.7370 C.ar        1 MOL      -0.0390
     11 CAK        56.4229   20.5900   51.5292 C.3         1 MOL      -0.0152
     12 CAL        56.0356   22.2663   53.3485 C.3         1 MOL      -0.0152
     13 CAM        57.8956   21.1019   51.4204 C.3         1 MOL      -0.0331
     14 CAN        57.5358   22.6989   53.2556 C.3         1 MOL      -0.0331
     15 CAO        58.3349   20.4097   53.7293 C.3         1 MOL      -0.0283
     16 CAP        56.4397   14.1162   53.9192 C.ar        1 MOL       0.0022
     17 CAQ        56.5377   15.5232   53.9295 C.ar        1 MOL       0.0101
     18 CAR        56.7255   18.3881   53.9282 C.ar        1 MOL      -0.0233
     19 CAS        55.9229   20.7395   53.0097 C.3         1 MOL      -0.0252
     20 NAT        58.3845   21.5608   52.7634 N.4         1 MOL       0.2304
     21 CAU        56.8539   19.8983   53.9778 C.3         1 MOL       0.0922
     22 H1         57.1866   19.9528   55.9092 H           1 MOL       0.1945
     23 H2         56.1132   10.2807   53.8166 H           1 MOL       0.0663
     24 H3         58.0134   11.3693   52.7653 H           1 MOL       0.0633
     25 H4         54.4218   11.6154   54.9356 H           1 MOL       0.0633
     26 H5         58.2346   13.7757   52.8303 H           1 MOL       0.0672
     27 H6         54.6015   14.0250   54.9838 H           1 MOL       0.0672
     28 H7         54.9623   15.8522   52.5533 H           1 MOL       0.0700
     29 H8         58.1295   15.6445   55.3254 H           1 MOL       0.0700
     30 H9         55.0793   18.2051   52.5757 H           1 MOL       0.0838
     31 H10        58.2692   18.0278   55.3452 H           1 MOL       0.0838
     32 H11        56.3695   19.5522   51.1977 H           1 MOL       0.0312
     33 H12        55.7808   21.1729   50.8648 H           1 MOL       0.0312
     34 H13        55.4319   22.8484   52.6447 H           1 MOL       0.0312
     35 H14        55.6367   22.4653   54.3441 H           1 MOL       0.0312
     36 H15        57.9627   21.9232   50.7034 H           1 MOL       0.0814
     37 H16        58.5348   20.3023   51.0417 H           1 MOL       0.0814
     38 H17        57.9005   23.0305   54.2319 H           1 MOL       0.0814
     39 H18        57.6326   23.5496   52.5758 H           1 MOL       0.0814
     40 H19        58.8020   20.7176   54.6688 H           1 MOL       0.0725
     41 H20        58.9642   19.6089   53.3289 H           1 MOL       0.0725
     42 H21        54.8738   20.4473   53.1063 H           1 MOL       0.0225
     43 H22        59.3503   21.8852   52.6759 H           1 MOL       0.2025
@<TRIPOS>BOND
     1    21     1   1
     2     3     2  ar
     3     4     2  ar
     4     5     3  ar
     5     6     4  ar
     6    16     5  ar
     7    16     6  ar
     8     9     7  ar
     9     7    17  ar
    10    10     8  ar
    11     8    17  ar
    12    18     9  ar
    13    18    10  ar
    14    13    11   1
    15    11    19   1
    16    14    12   1
    17    12    19   1
    18    20    13   1
    19    20    14   1
    20    15    20   1
    21    21    15   1
    22    17    16   1
    23    18    21   1
    24    19    21   1
    25     1    22   1
    26     2    23   1
    27     3    24   1
    28     4    25   1
    29     5    26   1
    30     6    27   1
    31     7    28   1
    32     8    29   1
    33     9    30   1
    34    10    31   1
    35    11    32   1
    36    11    33   1
    37    12    34   1
    38    12    35   1
    39    13    36   1
    40    13    37   1
    41    14    38   1
    42    14    39   1
    43    15    40   1
    44    15    41   1
    45    19    42   1
    46    20    43   1
@<TRIPOS>SUBSTRUCTURE
     1  MOL      2

