@<TRIPOS>MOLECULE
3acw_ligand_029
    43    46
SMALL
GAST_HUCK
****
This file was generated by PARSER (from files_GN.cpp)

@<TRIPOS>ATOM
      1 OAA        54.4918   15.2856   51.4119 O.3         1 MOL      -0.4236
      2 CAB        58.9660   23.0602   53.2960 C.ar        1 MOL      -0.0563
      3 CAC        58.7208   22.6129   51.9844 C.ar        1 MOL      -0.0552
      4 CAD        58.6244   22.2500   54.3926 C.ar        1 MOL      -0.0552
      5 CAE        58.1508   21.3431   51.7693 C.ar        1 MOL      -0.0454
      6 CAF        58.0407   20.9869   54.1834 C.ar        1 MOL      -0.0454
      7 CAG        55.9358   18.9513   52.6844 C.ar        1 MOL      -0.0261
      8 CAH        58.2228   18.1581   52.4729 C.ar        1 MOL      -0.0261
      9 CAI        55.4685   17.6413   52.4544 C.ar        1 MOL      -0.0390
     10 CAJ        57.7397   16.8583   52.2453 C.ar        1 MOL      -0.0390
     11 CAK        57.2791   13.8370   53.5756 C.3         1 MOL      -0.0152
     12 CAL        55.1022   12.8901   52.7991 C.3         1 MOL      -0.0152
     13 CAM        57.9854   13.1397   52.3609 C.3         1 MOL      -0.0331
     14 CAN        55.8397   12.2154   51.5909 C.3         1 MOL      -0.0331
     15 CAO        56.6200   14.3890   50.7323 C.3         1 MOL      -0.0283
     16 CAP        57.8114   20.5228   52.8695 C.ar        1 MOL       0.0022
     17 CAQ        57.3192   19.2204   52.6646 C.ar        1 MOL       0.0101
     18 CAR        56.3555   16.5652   52.1833 C.ar        1 MOL      -0.0233
     19 CAS        55.8230   14.2404   53.1569 C.3         1 MOL      -0.0252
     20 NAT        57.0455   13.0235   51.1937 N.4         1 MOL       0.2304
     21 CAU        55.8477   15.1695   51.8773 C.3         1 MOL       0.0922
     22 H1         54.5275   15.7907   50.5724 H           1 MOL       0.1945
     23 H2         59.3980   23.9721   53.4544 H           1 MOL       0.0663
     24 H3         58.9716   23.2016   51.1853 H           1 MOL       0.0633
     25 H4         58.8028   22.5732   55.3460 H           1 MOL       0.0633
     26 H5         57.9987   21.0205   50.8092 H           1 MOL       0.0672
     27 H6         57.8064   20.4044   54.9916 H           1 MOL       0.0672
     28 H7         55.2655   19.7041   52.8615 H           1 MOL       0.0700
     29 H8         59.2329   18.3253   52.5030 H           1 MOL       0.0700
     30 H9         54.4605   17.4849   52.4900 H           1 MOL       0.0838
     31 H10        58.4284   16.1174   52.1189 H           1 MOL       0.0838
     32 H11        57.8472   14.7094   53.9091 H           1 MOL       0.0312
     33 H12        57.2412   13.1450   54.4255 H           1 MOL       0.0312
     34 H13        55.1093   12.2184   53.6650 H           1 MOL       0.0312
     35 H14        54.0508   13.0679   52.5504 H           1 MOL       0.0312
     36 H15        58.3297   12.1439   52.6518 H           1 MOL       0.0814
     37 H16        58.8747   13.7022   52.0643 H           1 MOL       0.0814
     38 H17        55.1589   12.1231   50.7405 H           1 MOL       0.0814
     39 H18        56.1498   11.2030   51.8610 H           1 MOL       0.0814
     40 H19        55.9926   14.2673   49.8411 H           1 MOL       0.0725
     41 H20        57.4978   14.9348   50.3750 H           1 MOL       0.0725
     42 H21        55.3053   14.7270   53.9866 H           1 MOL       0.0225
     43 H22        57.5241   12.5516   50.4247 H           1 MOL       0.2025
@<TRIPOS>BOND
     1    21     1   1
     2     3     2  ar
     3     4     2  ar
     4     5     3  ar
     5     6     4  ar
     6    16     5  ar
     7    16     6  ar
     8     9     7  ar
     9     7    17  ar
    10    10     8  ar
    11     8    17  ar
    12    18     9  ar
    13    18    10  ar
    14    13    11   1
    15    11    19   1
    16    14    12   1
    17    12    19   1
    18    20    13   1
    19    20    14   1
    20    15    20   1
    21    21    15   1
    22    17    16   1
    23    18    21   1
    24    19    21   1
    25     1    22   1
    26     2    23   1
    27     3    24   1
    28     4    25   1
    29     5    26   1
    30     6    27   1
    31     7    28   1
    32     8    29   1
    33     9    30   1
    34    10    31   1
    35    11    32   1
    36    11    33   1
    37    12    34   1
    38    12    35   1
    39    13    36   1
    40    13    37   1
    41    14    38   1
    42    14    39   1
    43    15    40   1
    44    15    41   1
    45    19    42   1
    46    20    43   1
@<TRIPOS>SUBSTRUCTURE
     1  MOL      2

