@<TRIPOS>MOLECULE
3acw_ligand_073
    43    46
SMALL
GAST_HUCK
****
This file was generated by PARSER (from files_GN.cpp)

@<TRIPOS>ATOM
      1 OAA        57.2732    2.4447   54.5655 O.3         1 MOL      -0.4236
      2 CAB        50.9693   -3.6536   52.2759 C.ar        1 MOL      -0.0563
      3 CAC        50.7050   -2.3987   51.7000 C.ar        1 MOL      -0.0552
      4 CAD        52.1381   -3.8481   53.0319 C.ar        1 MOL      -0.0552
      5 CAE        51.6081   -1.3345   51.8880 C.ar        1 MOL      -0.0454
      6 CAF        53.0469   -2.7887   53.2123 C.ar        1 MOL      -0.0454
      7 CAG        55.0390   -0.5116   52.4981 C.ar        1 MOL      -0.0261
      8 CAH        53.2151    0.7409   53.4941 C.ar        1 MOL      -0.0261
      9 CAI        55.9009    0.5832   52.7224 C.ar        1 MOL      -0.0390
     10 CAJ        54.0811    1.8217   53.7162 C.ar        1 MOL      -0.0390
     11 CAK        54.9852    4.9817   52.8852 C.3         1 MOL      -0.0152
     12 CAL        56.9661    5.2846   54.4092 C.3         1 MOL      -0.0152
     13 CAM        55.9381    5.2540   51.6744 C.3         1 MOL      -0.0331
     14 CAN        57.8836    5.4831   53.1665 C.3         1 MOL      -0.0331
     15 CAO        57.2770    3.2830   52.2525 C.3         1 MOL      -0.0283
     16 CAP        52.7889   -1.5165   52.6485 C.ar        1 MOL       0.0022
     17 CAQ        53.6782   -0.4338   52.8684 C.ar        1 MOL       0.0101
     18 CAR        55.4381    1.7941   53.3025 C.ar        1 MOL      -0.0233
     19 CAS        55.7982    4.3088   54.0450 C.3         1 MOL      -0.0252
     20 NAT        57.3268    4.7599   51.9752 N.4         1 MOL       0.2304
     21 CAU        56.4036    2.9373   53.5345 C.3         1 MOL       0.0922
     22 H1         56.7219    2.3640   55.3728 H           1 MOL       0.1945
     23 H2         50.3093   -4.4232   52.1496 H           1 MOL       0.0663
     24 H3         49.8520   -2.2552   51.1543 H           1 MOL       0.0633
     25 H4         52.3264   -4.7562   53.4629 H           1 MOL       0.0633
     26 H5         51.3951   -0.4280   51.4626 H           1 MOL       0.0672
     27 H6         53.8847   -2.9461   53.7786 H           1 MOL       0.0672
     28 H7         55.4062   -1.3537   52.0430 H           1 MOL       0.0700
     29 H8         52.2409    0.8157   53.8010 H           1 MOL       0.0700
     30 H9         56.8802    0.4887   52.4418 H           1 MOL       0.0838
     31 H10        53.6863    2.6319   54.1921 H           1 MOL       0.0838
     32 H11        54.1622    4.3437   52.5602 H           1 MOL       0.0312
     33 H12        54.5397    5.9186   53.2359 H           1 MOL       0.0312
     34 H13        56.5630    6.2516   54.7132 H           1 MOL       0.0312
     35 H14        57.5422    4.9009   55.2555 H           1 MOL       0.0312
     36 H15        55.9548    6.3252   51.4605 H           1 MOL       0.0814
     37 H16        55.5560    4.7636   50.7754 H           1 MOL       0.0814
     38 H17        58.8802    5.1092   53.3955 H           1 MOL       0.0814
     39 H18        57.9889    6.5482   52.9500 H           1 MOL       0.0814
     40 H19        58.3009    2.9158   52.3689 H           1 MOL       0.0725
     41 H20        56.8832    2.7870   51.3618 H           1 MOL       0.0725
     42 H21        55.1799    4.1811   54.9354 H           1 MOL       0.0225
     43 H22        57.9405    4.9264   51.1702 H           1 MOL       0.2025
@<TRIPOS>BOND
     1    21     1   1
     2     3     2  ar
     3     4     2  ar
     4     5     3  ar
     5     6     4  ar
     6    16     5  ar
     7    16     6  ar
     8     9     7  ar
     9     7    17  ar
    10    10     8  ar
    11     8    17  ar
    12    18     9  ar
    13    18    10  ar
    14    13    11   1
    15    11    19   1
    16    14    12   1
    17    12    19   1
    18    20    13   1
    19    20    14   1
    20    15    20   1
    21    21    15   1
    22    17    16   1
    23    18    21   1
    24    19    21   1
    25     1    22   1
    26     2    23   1
    27     3    24   1
    28     4    25   1
    29     5    26   1
    30     6    27   1
    31     7    28   1
    32     8    29   1
    33     9    30   1
    34    10    31   1
    35    11    32   1
    36    11    33   1
    37    12    34   1
    38    12    35   1
    39    13    36   1
    40    13    37   1
    41    14    38   1
    42    14    39   1
    43    15    40   1
    44    15    41   1
    45    19    42   1
    46    20    43   1
@<TRIPOS>SUBSTRUCTURE
     1  MOL      2

