@<TRIPOS>MOLECULE
3acw_ligand_044
    43    46
SMALL
GAST_HUCK
****
This file was generated by PARSER (from files_GN.cpp)

@<TRIPOS>ATOM
      1 OAA        56.8273   18.6992   55.0868 O.3         1 MOL      -0.4236
      2 CAB        56.1710   10.7645   50.8354 C.ar        1 MOL      -0.0563
      3 CAC        55.4089   11.2082   51.9313 C.ar        1 MOL      -0.0552
      4 CAD        57.0455   11.6450   50.1828 C.ar        1 MOL      -0.0552
      5 CAE        55.5272   12.5374   52.3781 C.ar        1 MOL      -0.0454
      6 CAF        57.1694   12.9757   50.6234 C.ar        1 MOL      -0.0454
      7 CAG        55.6327   15.7497   51.8077 C.ar        1 MOL      -0.0261
      8 CAH        57.6260   15.1022   53.0383 C.ar        1 MOL      -0.0261
      9 CAI        55.7901   17.0713   52.2654 C.ar        1 MOL      -0.0390
     10 CAJ        57.7709   16.4278   53.4902 C.ar        1 MOL      -0.0390
     11 CAK        56.4519   20.3748   51.6817 C.3         1 MOL      -0.0152
     12 CAL        56.2535   21.2664   54.0154 C.3         1 MOL      -0.0152
     13 CAM        57.9242   20.8965   51.6517 C.3         1 MOL      -0.0331
     14 CAN        57.7553   21.7052   53.9723 C.3         1 MOL      -0.0331
     15 CAO        58.5181   19.3999   53.4964 C.3         1 MOL      -0.0283
     16 CAP        56.4093   13.4277   51.7282 C.ar        1 MOL       0.0022
     17 CAQ        56.5591   14.7575   52.1875 C.ar        1 MOL       0.0101
     18 CAR        56.8764   17.4519   53.0911 C.ar        1 MOL      -0.0233
     19 CAS        56.0694   19.9735   53.1495 C.3         1 MOL      -0.0252
     20 NAT        58.5287   20.8277   53.0289 N.4         1 MOL       0.2304
     21 CAU        57.0457   18.8385   53.6723 C.3         1 MOL       0.0922
     22 H1         56.4009   17.8322   55.2479 H           1 MOL       0.1945
     23 H2         56.0842    9.7954   50.5185 H           1 MOL       0.0663
     24 H3         54.7743   10.5660   52.4103 H           1 MOL       0.0633
     25 H4         57.6032   11.3202   49.3866 H           1 MOL       0.0633
     26 H5         54.9722   12.8453   53.1824 H           1 MOL       0.0672
     27 H6         57.8140   13.6069   50.1413 H           1 MOL       0.0672
     28 H7         54.8359   15.5214   51.2048 H           1 MOL       0.0700
     29 H8         58.2984   14.3880   53.3437 H           1 MOL       0.0700
     30 H9         55.0714   17.7361   51.9943 H           1 MOL       0.0838
     31 H10        58.5383   16.6270   54.1353 H           1 MOL       0.0838
     32 H11        56.3540   19.5255   51.0049 H           1 MOL       0.0312
     33 H12        55.7821   21.1605   51.3194 H           1 MOL       0.0312
     34 H13        55.6146   22.0676   53.6238 H           1 MOL       0.0312
     35 H14        55.9399   21.0856   55.0466 H           1 MOL       0.0312
     36 H15        57.9548   21.9266   51.2801 H           1 MOL       0.0814
     37 H16        58.5138   20.2908   50.9558 H           1 MOL       0.0814
     38 H17        58.1958   21.6412   54.9704 H           1 MOL       0.0814
     39 H18        57.8279   22.7493   53.6549 H           1 MOL       0.0814
     40 H19        59.0669   19.3334   54.4415 H           1 MOL       0.0725
     41 H20        59.0996   18.8110   52.7775 H           1 MOL       0.0725
     42 H21        55.0218   19.6663   53.2104 H           1 MOL       0.0225
     43 H22        59.4937   21.1714   52.9946 H           1 MOL       0.2025
@<TRIPOS>BOND
     1    21     1   1
     2     3     2  ar
     3     4     2  ar
     4     5     3  ar
     5     6     4  ar
     6    16     5  ar
     7    16     6  ar
     8     9     7  ar
     9     7    17  ar
    10    10     8  ar
    11     8    17  ar
    12    18     9  ar
    13    18    10  ar
    14    13    11   1
    15    11    19   1
    16    14    12   1
    17    12    19   1
    18    20    13   1
    19    20    14   1
    20    15    20   1
    21    21    15   1
    22    17    16   1
    23    18    21   1
    24    19    21   1
    25     1    22   1
    26     2    23   1
    27     3    24   1
    28     4    25   1
    29     5    26   1
    30     6    27   1
    31     7    28   1
    32     8    29   1
    33     9    30   1
    34    10    31   1
    35    11    32   1
    36    11    33   1
    37    12    34   1
    38    12    35   1
    39    13    36   1
    40    13    37   1
    41    14    38   1
    42    14    39   1
    43    15    40   1
    44    15    41   1
    45    19    42   1
    46    20    43   1
@<TRIPOS>SUBSTRUCTURE
     1  MOL      2

