@<TRIPOS>MOLECULE
3acw_ligand_071
    43    46
SMALL
GAST_HUCK
****
This file was generated by PARSER (from files_GN.cpp)

@<TRIPOS>ATOM
      1 OAA        56.6984    1.8997   54.4013 O.3         1 MOL      -0.4236
      2 CAB        63.0211    5.7598   59.6783 C.ar        1 MOL      -0.0563
      3 CAC        62.8505    6.4612   58.4799 C.ar        1 MOL      -0.0552
      4 CAD        62.0965    4.7666   60.0369 C.ar        1 MOL      -0.0552
      5 CAE        61.7555    6.1816   57.6434 C.ar        1 MOL      -0.0454
      6 CAF        61.0229    4.4633   59.1825 C.ar        1 MOL      -0.0454
      7 CAG        58.7567    3.8230   57.4072 C.ar        1 MOL      -0.0261
      8 CAH        59.5617    5.4087   55.8010 C.ar        1 MOL      -0.0261
      9 CAI        57.7914    3.3875   56.4834 C.ar        1 MOL      -0.0390
     10 CAJ        58.5717    4.9911   54.8922 C.ar        1 MOL      -0.0390
     11 CAK        56.9137    4.7540   51.9103 C.3         1 MOL      -0.0152
     12 CAL        55.9796    2.4820   51.8125 C.3         1 MOL      -0.0152
     13 CAM        55.5216    5.3428   52.3072 C.3         1 MOL      -0.0331
     14 CAN        54.5603    3.0803   52.1142 C.3         1 MOL      -0.0331
     15 CAO        55.3020    3.9194   54.3032 C.3         1 MOL      -0.0283
     16 CAP        60.8103    5.1609   57.9620 C.ar        1 MOL       0.0022
     17 CAQ        59.7261    4.8078   57.0717 C.ar        1 MOL       0.0101
     18 CAR        57.7241    3.8863   55.1522 C.ar        1 MOL      -0.0233
     19 CAS        57.0715    3.3379   52.5716 C.3         1 MOL      -0.0252
     20 NAT        54.6833    4.3015   52.9867 N.4         1 MOL       0.2304
     21 CAU        56.7449    3.3107   54.1318 C.3         1 MOL       0.0922
     22 H1         55.9184    1.7346   54.9743 H           1 MOL       0.1945
     23 H2         63.8098    5.9740   60.2887 H           1 MOL       0.0663
     24 H3         63.5226    7.1846   58.2086 H           1 MOL       0.0633
     25 H4         62.2194    4.2513   60.9118 H           1 MOL       0.0633
     26 H5         61.6577    6.7480   56.8033 H           1 MOL       0.0672
     27 H6         60.4130    3.6950   59.4725 H           1 MOL       0.0672
     28 H7         58.7317    3.4043   58.3417 H           1 MOL       0.0700
     29 H8         60.1774    6.1609   55.4936 H           1 MOL       0.0700
     30 H9         57.1441    2.6624   56.8005 H           1 MOL       0.0838
     31 H10        58.4931    5.5212   54.0371 H           1 MOL       0.0838
     32 H11        57.7162    5.4339   52.1536 H           1 MOL       0.0312
     33 H12        56.9703    4.6659   50.8197 H           1 MOL       0.0312
     34 H13        56.1586    2.4888   50.7336 H           1 MOL       0.0312
     35 H14        56.0135    1.4317   52.1088 H           1 MOL       0.0312
     36 H15        55.6656    6.2022   52.9682 H           1 MOL       0.0814
     37 H16        55.0039    5.7146   51.4184 H           1 MOL       0.0814
     38 H17        53.9304    2.3345   52.6060 H           1 MOL       0.0814
     39 H18        54.0595    3.3534   51.1812 H           1 MOL       0.0814
     40 H19        54.6439    3.2178   54.8228 H           1 MOL       0.0725
     41 H20        55.3420    4.8062   54.9334 H           1 MOL       0.0725
     42 H21        58.0700    2.9493   52.3647 H           1 MOL       0.0225
     43 H22        53.7523    4.6839   53.1605 H           1 MOL       0.2025
@<TRIPOS>BOND
     1    21     1   1
     2     3     2  ar
     3     4     2  ar
     4     5     3  ar
     5     6     4  ar
     6    16     5  ar
     7    16     6  ar
     8     9     7  ar
     9     7    17  ar
    10    10     8  ar
    11     8    17  ar
    12    18     9  ar
    13    18    10  ar
    14    13    11   1
    15    11    19   1
    16    14    12   1
    17    12    19   1
    18    20    13   1
    19    20    14   1
    20    15    20   1
    21    21    15   1
    22    17    16   1
    23    18    21   1
    24    19    21   1
    25     1    22   1
    26     2    23   1
    27     3    24   1
    28     4    25   1
    29     5    26   1
    30     6    27   1
    31     7    28   1
    32     8    29   1
    33     9    30   1
    34    10    31   1
    35    11    32   1
    36    11    33   1
    37    12    34   1
    38    12    35   1
    39    13    36   1
    40    13    37   1
    41    14    38   1
    42    14    39   1
    43    15    40   1
    44    15    41   1
    45    19    42   1
    46    20    43   1
@<TRIPOS>SUBSTRUCTURE
     1  MOL      2

