@<TRIPOS>MOLECULE
3acw_ligand_066
    43    46
SMALL
GAST_HUCK
****
This file was generated by PARSER (from files_GN.cpp)

@<TRIPOS>ATOM
      1 OAA        54.4165    3.7915   51.3871 O.3         1 MOL      -0.4236
      2 CAB        55.9845   12.3238   54.0840 C.ar        1 MOL      -0.0563
      3 CAC        54.8437   11.5404   54.3530 C.ar        1 MOL      -0.0552
      4 CAD        56.9787   11.8373   53.2208 C.ar        1 MOL      -0.0552
      5 CAE        54.7107   10.2655   53.7623 C.ar        1 MOL      -0.0454
      6 CAF        56.8487   10.5625   52.6339 C.ar        1 MOL      -0.0454
      7 CAG        56.1022    7.3371   52.7841 C.ar        1 MOL      -0.0261
      8 CAH        54.9082    8.4498   50.9941 C.ar        1 MOL      -0.0261
      9 CAI        55.9095    6.1001   52.1350 C.ar        1 MOL      -0.0390
     10 CAJ        54.7542    7.2214   50.3383 C.ar        1 MOL      -0.0390
     11 CAK        56.6810    4.7046   48.4721 C.3         1 MOL      -0.0152
     12 CAL        55.9611    2.4662   49.3555 C.3         1 MOL      -0.0152
     13 CAM        55.5256    4.6183   47.4156 C.3         1 MOL      -0.0331
     14 CAN        54.8056    2.4316   48.2992 C.3         1 MOL      -0.0331
     15 CAO        53.8081    4.4918   49.1879 C.3         1 MOL      -0.0283
     16 CAP        55.7104    9.7635   52.8968 C.ar        1 MOL       0.0022
     17 CAQ        55.5583    8.5198   52.2433 C.ar        1 MOL       0.0101
     18 CAR        55.1762    5.9929   50.9231 C.ar        1 MOL      -0.0233
     19 CAS        56.2405    3.9541   49.7715 C.3         1 MOL      -0.0252
     20 NAT        54.3651    3.8291   47.9582 N.4         1 MOL       0.2304
     21 CAU        54.9148    4.6191   50.3236 C.3         1 MOL       0.0922
     22 H1         55.2068    3.4132   51.8294 H           1 MOL       0.1945
     23 H2         56.0762   13.2529   54.5030 H           1 MOL       0.0663
     24 H3         54.1110   11.9046   54.9680 H           1 MOL       0.0633
     25 H4         57.7948   12.4182   53.0020 H           1 MOL       0.0633
     26 H5         53.8696    9.7141   53.9646 H           1 MOL       0.0672
     27 H6         57.5775   10.2324   51.9962 H           1 MOL       0.0672
     28 H7         56.6380    7.3633   53.6558 H           1 MOL       0.0700
     29 H8         54.5477    9.3008   50.5510 H           1 MOL       0.0700
     30 H9         56.3169    5.2703   52.5726 H           1 MOL       0.0838
     31 H10        54.3350    7.2623   49.4128 H           1 MOL       0.0838
     32 H11        56.9176    5.7459   48.6976 H           1 MOL       0.0312
     33 H12        57.5915    4.2482   48.0749 H           1 MOL       0.0312
     34 H13        56.8632    2.0224   48.9340 H           1 MOL       0.0312
     35 H14        55.6895    1.8701   50.2287 H           1 MOL       0.0312
     36 H15        55.8954    4.1521   46.4969 H           1 MOL       0.0814
     37 H16        55.1912    5.6208   47.1439 H           1 MOL       0.0814
     38 H17        53.9578    1.8621   48.6909 H           1 MOL       0.0814
     39 H18        55.1332    1.9109   47.3942 H           1 MOL       0.0814
     40 H19        52.9544    3.8951   49.5316 H           1 MOL       0.0725
     41 H20        53.3668    5.4399   48.9054 H           1 MOL       0.0725
     42 H21        57.0386    3.9852   50.5194 H           1 MOL       0.0225
     43 H22        53.6367    3.7802   47.2427 H           1 MOL       0.2025
@<TRIPOS>BOND
     1    21     1   1
     2     3     2  ar
     3     4     2  ar
     4     5     3  ar
     5     6     4  ar
     6    16     5  ar
     7    16     6  ar
     8     9     7  ar
     9     7    17  ar
    10    10     8  ar
    11     8    17  ar
    12    18     9  ar
    13    18    10  ar
    14    13    11   1
    15    11    19   1
    16    14    12   1
    17    12    19   1
    18    20    13   1
    19    20    14   1
    20    15    20   1
    21    21    15   1
    22    17    16   1
    23    18    21   1
    24    19    21   1
    25     1    22   1
    26     2    23   1
    27     3    24   1
    28     4    25   1
    29     5    26   1
    30     6    27   1
    31     7    28   1
    32     8    29   1
    33     9    30   1
    34    10    31   1
    35    11    32   1
    36    11    33   1
    37    12    34   1
    38    12    35   1
    39    13    36   1
    40    13    37   1
    41    14    38   1
    42    14    39   1
    43    15    40   1
    44    15    41   1
    45    19    42   1
    46    20    43   1
@<TRIPOS>SUBSTRUCTURE
     1  MOL      2

