@<TRIPOS>MOLECULE
3acw_ligand_057
    43    46
SMALL
GAST_HUCK
****
This file was generated by PARSER (from files_GN.cpp)

@<TRIPOS>ATOM
      1 OAA        58.5135   13.8359   52.2899 O.3         1 MOL      -0.4236
      2 CAB        53.3806    6.6590   49.5347 C.ar        1 MOL      -0.0563
      3 CAC        54.1799    6.6680   50.6870 C.ar        1 MOL      -0.0552
      4 CAD        53.1343    7.8660   48.8556 C.ar        1 MOL      -0.0552
      5 CAE        54.7346    7.8755   51.1596 C.ar        1 MOL      -0.0454
      6 CAF        53.7016    9.0691   49.3236 C.ar        1 MOL      -0.0454
      7 CAG        56.3619   10.3631   51.6374 C.ar        1 MOL      -0.0261
      8 CAH        54.5411   11.6088   50.6858 C.ar        1 MOL      -0.0261
      9 CAI        56.9757   11.5724   52.0294 C.ar        1 MOL      -0.0390
     10 CAJ        55.1650   12.8166   51.0655 C.ar        1 MOL      -0.0390
     11 CAK        55.1656   15.3010   53.3529 C.3         1 MOL      -0.0152
     12 CAL        57.5193   15.8826   53.9620 C.3         1 MOL      -0.0152
     13 CAM        55.1961   16.4172   52.2514 C.3         1 MOL      -0.0331
     14 CAN        57.5106   16.9851   52.8488 C.3         1 MOL      -0.0331
     15 CAO        57.0517   15.3135   51.0762 C.3         1 MOL      -0.0283
     16 CAP        54.5215    9.1145   50.4878 C.ar        1 MOL       0.0022
     17 CAQ        55.1288   10.3428   50.9358 C.ar        1 MOL       0.0101
     18 CAR        56.4181   12.8462   51.7296 C.ar        1 MOL      -0.0233
     19 CAS        56.6004   14.6890   53.5097 C.3         1 MOL      -0.0252
     20 NAT        56.5897   16.5934   51.7232 N.4         1 MOL       0.2304
     21 CAU        57.1177   14.1323   52.1268 C.3         1 MOL       0.0922
     22 H1         58.8092   13.4862   51.4166 H           1 MOL       0.1945
     23 H2         52.9810    5.7831   49.1905 H           1 MOL       0.0663
     24 H3         54.3620    5.7895   51.1876 H           1 MOL       0.0633
     25 H4         52.5539    7.8642   48.0134 H           1 MOL       0.0633
     26 H5         55.2942    7.8354   52.0188 H           1 MOL       0.0672
     27 H6         53.5190    9.9110   48.7749 H           1 MOL       0.0672
     28 H7         56.8505    9.4923   51.8548 H           1 MOL       0.0700
     29 H8         53.6296   11.6821   50.2177 H           1 MOL       0.0700
     30 H9         57.8665   11.5030   52.5383 H           1 MOL       0.0838
     31 H10        54.6786   13.6935   50.8417 H           1 MOL       0.0838
     32 H11        54.4448   14.5247   53.0954 H           1 MOL       0.0312
     33 H12        54.8424   15.7293   54.3058 H           1 MOL       0.0312
     34 H13        57.1572   16.3023   54.9048 H           1 MOL       0.0312
     35 H14        58.5424   15.5376   54.1434 H           1 MOL       0.0312
     36 H15        54.8373   17.3617   52.6638 H           1 MOL       0.0814
     37 H16        54.5272   16.1602   51.4264 H           1 MOL       0.0814
     38 H17        58.5223   17.1421   52.4617 H           1 MOL       0.0814
     39 H18        57.1877   17.9409   53.2719 H           1 MOL       0.0814
     40 H19        58.0323   15.4907   50.6191 H           1 MOL       0.0725
     41 H20        56.3972   15.0835   50.2329 H           1 MOL       0.0725
     42 H21        56.6030   13.9129   54.2821 H           1 MOL       0.0225
     43 H22        56.5932   17.3377   51.0213 H           1 MOL       0.2025
@<TRIPOS>BOND
     1    21     1   1
     2     3     2  ar
     3     4     2  ar
     4     5     3  ar
     5     6     4  ar
     6    16     5  ar
     7    16     6  ar
     8     9     7  ar
     9     7    17  ar
    10    10     8  ar
    11     8    17  ar
    12    18     9  ar
    13    18    10  ar
    14    13    11   1
    15    11    19   1
    16    14    12   1
    17    12    19   1
    18    20    13   1
    19    20    14   1
    20    15    20   1
    21    21    15   1
    22    17    16   1
    23    18    21   1
    24    19    21   1
    25     1    22   1
    26     2    23   1
    27     3    24   1
    28     4    25   1
    29     5    26   1
    30     6    27   1
    31     7    28   1
    32     8    29   1
    33     9    30   1
    34    10    31   1
    35    11    32   1
    36    11    33   1
    37    12    34   1
    38    12    35   1
    39    13    36   1
    40    13    37   1
    41    14    38   1
    42    14    39   1
    43    15    40   1
    44    15    41   1
    45    19    42   1
    46    20    43   1
@<TRIPOS>SUBSTRUCTURE
     1  MOL      2

