@<TRIPOS>MOLECULE
3acw_ligand_062
    43    46
SMALL
GAST_HUCK
****
This file was generated by PARSER (from files_GN.cpp)

@<TRIPOS>ATOM
      1 OAA        55.1578    4.7283   53.3905 O.3         1 MOL      -0.4236
      2 CAB        55.3346   13.4627   50.7146 C.ar        1 MOL      -0.0563
      3 CAC        56.5714   12.7956   50.7808 C.ar        1 MOL      -0.0552
      4 CAD        54.1404   12.7326   50.8276 C.ar        1 MOL      -0.0552
      5 CAE        56.6131   11.3978   50.9767 C.ar        1 MOL      -0.0454
      6 CAF        54.1759   11.3382   51.0055 C.ar        1 MOL      -0.0454
      7 CAG        56.0031    8.6873   52.4353 C.ar        1 MOL      -0.0261
      8 CAH        54.8750    8.3879   50.3105 C.ar        1 MOL      -0.0261
      9 CAI        55.9743    7.2976   52.6333 C.ar        1 MOL      -0.0390
     10 CAJ        54.8646    6.9943   50.5152 C.ar        1 MOL      -0.0390
     11 CAK        56.8754    4.1829   50.0263 C.3         1 MOL      -0.0152
     12 CAL        56.8014    2.7910   52.1064 C.3         1 MOL      -0.0152
     13 CAM        55.6927    3.3236   49.4587 C.3         1 MOL      -0.0331
     14 CAN        55.5781    2.0012   51.5298 C.3         1 MOL      -0.0331
     15 CAO        54.2243    4.0430   51.2925 C.3         1 MOL      -0.0283
     16 CAP        55.4123   10.6564   51.0846 C.ar        1 MOL       0.0022
     17 CAQ        55.4336    9.2520   51.2761 C.ar        1 MOL       0.0101
     18 CAR        55.3649    6.4068   51.7114 C.ar        1 MOL      -0.0233
     19 CAS        56.7513    4.2683   51.5819 C.3         1 MOL      -0.0252
     20 NAT        54.8011    2.8559   50.5693 N.4         1 MOL       0.2304
     21 CAU        55.3645    4.9136   51.9750 C.3         1 MOL       0.0922
     22 H1         55.9872    5.0130   53.8337 H           1 MOL       0.1945
     23 H2         55.3050   14.4733   50.5699 H           1 MOL       0.0663
     24 H3         57.4432   13.3239   50.6792 H           1 MOL       0.0633
     25 H4         53.2412   13.2156   50.7734 H           1 MOL       0.0633
     26 H5         57.5221   10.9314   51.0170 H           1 MOL       0.0672
     27 H6         53.2945   10.8257   51.0876 H           1 MOL       0.0672
     28 H7         56.4302    9.2861   53.1441 H           1 MOL       0.0700
     29 H8         54.4878    8.7617   49.4396 H           1 MOL       0.0700
     30 H9         56.4340    6.9364   53.4740 H           1 MOL       0.0838
     31 H10        54.5091    6.4179   49.7532 H           1 MOL       0.0838
     32 H11        56.8728    5.1804   49.5822 H           1 MOL       0.0312
     33 H12        57.8297    3.7195   49.7524 H           1 MOL       0.0312
     34 H13        57.7401    2.3152   51.7995 H           1 MOL       0.0312
     35 H14        56.7839    2.7705   53.2023 H           1 MOL       0.0312
     36 H15        56.0868    2.4574   48.9166 H           1 MOL       0.0814
     37 H16        55.1157    3.9085   48.7335 H           1 MOL       0.0814
     38 H17        54.9259    1.6789   52.3472 H           1 MOL       0.0814
     39 H18        55.9232    1.0950   51.0261 H           1 MOL       0.0814
     40 H19        53.5053    3.6738   52.0377 H           1 MOL       0.0725
     41 H20        53.6096    4.6078   50.5970 H           1 MOL       0.0725
     42 H21        57.5878    4.8348   51.9993 H           1 MOL       0.0225
     43 H22        54.0377    2.3052   50.1745 H           1 MOL       0.2025
@<TRIPOS>BOND
     1    21     1   1
     2     3     2  ar
     3     4     2  ar
     4     5     3  ar
     5     6     4  ar
     6    16     5  ar
     7    16     6  ar
     8     9     7  ar
     9     7    17  ar
    10    10     8  ar
    11     8    17  ar
    12    18     9  ar
    13    18    10  ar
    14    13    11   1
    15    11    19   1
    16    14    12   1
    17    12    19   1
    18    20    13   1
    19    20    14   1
    20    15    20   1
    21    21    15   1
    22    17    16   1
    23    18    21   1
    24    19    21   1
    25     1    22   1
    26     2    23   1
    27     3    24   1
    28     4    25   1
    29     5    26   1
    30     6    27   1
    31     7    28   1
    32     8    29   1
    33     9    30   1
    34    10    31   1
    35    11    32   1
    36    11    33   1
    37    12    34   1
    38    12    35   1
    39    13    36   1
    40    13    37   1
    41    14    38   1
    42    14    39   1
    43    15    40   1
    44    15    41   1
    45    19    42   1
    46    20    43   1
@<TRIPOS>SUBSTRUCTURE
     1  MOL      2

