@<TRIPOS>MOLECULE
3acw_ligand_009
    43    46
SMALL
GAST_HUCK
****
This file was generated by PARSER (from files_GN.cpp)

@<TRIPOS>ATOM
      1 OAA        55.8733   11.1603   50.8362 O.3         1 MOL      -0.4236
      2 CAB        52.6847    3.5364   47.1716 C.ar        1 MOL      -0.0563
      3 CAC        54.0305    3.9392   47.2286 C.ar        1 MOL      -0.0552
      4 CAD        51.6992    4.2820   47.8418 C.ar        1 MOL      -0.0552
      5 CAE        54.3979    5.0738   47.9746 C.ar        1 MOL      -0.0454
      6 CAF        52.0612    5.4248   48.5760 C.ar        1 MOL      -0.0454
      7 CAG        54.7247    6.9666   50.4271 C.ar        1 MOL      -0.0261
      8 CAH        53.1831    8.2289   49.0467 C.ar        1 MOL      -0.0261
      9 CAI        55.0271    8.1305   51.1591 C.ar        1 MOL      -0.0390
     10 CAJ        53.5304    9.3936   49.7474 C.ar        1 MOL      -0.0390
     11 CAK        54.0443   10.1458   54.0009 C.3         1 MOL      -0.0152
     12 CAL        55.7713   11.9365   53.6027 C.3         1 MOL      -0.0152
     13 CAM        52.9579   11.2711   53.9270 C.3         1 MOL      -0.0331
     14 CAN        54.6415   13.0049   53.4294 C.3         1 MOL      -0.0331
     15 CAO        53.5969   11.7515   51.6108 C.3         1 MOL      -0.0283
     16 CAP        53.4158    5.8290   48.6597 C.ar        1 MOL       0.0022
     17 CAQ        53.7716    6.9937   49.3859 C.ar        1 MOL       0.0101
     18 CAR        54.3987    9.3760   50.8698 C.ar        1 MOL      -0.0233
     19 CAS        55.2566   10.5440   53.0925 C.3         1 MOL      -0.0252
     20 NAT        53.3803   12.3495   52.9665 N.4         1 MOL       0.2304
     21 CAU        54.7629   10.6635   51.5885 C.3         1 MOL       0.0922
     22 H1         55.6308   11.0998   49.8854 H           1 MOL       0.1945
     23 H2         52.4193    2.7044   46.6452 H           1 MOL       0.0663
     24 H3         54.7447    3.4078   46.7241 H           1 MOL       0.0633
     25 H4         50.7199    3.9926   47.7961 H           1 MOL       0.0633
     26 H5         55.3808    5.3574   47.9997 H           1 MOL       0.0672
     27 H6         51.3293    5.9526   49.0613 H           1 MOL       0.0672
     28 H7         55.1931    6.0880   50.6718 H           1 MOL       0.0700
     29 H8         52.5189    8.2986   48.2741 H           1 MOL       0.0700
     30 H9         55.7263    8.0544   51.8934 H           1 MOL       0.0838
     31 H10        53.1333   10.2679   49.3996 H           1 MOL       0.0838
     32 H11        53.6311    9.1921   53.6698 H           1 MOL       0.0312
     33 H12        54.3709   10.0219   55.0354 H           1 MOL       0.0312
     34 H13        56.0499   11.8655   54.6589 H           1 MOL       0.0312
     35 H14        56.6635   12.2408   53.0539 H           1 MOL       0.0312
     36 H15        52.8004   11.7091   54.9206 H           1 MOL       0.0814
     37 H16        51.9976   10.8449   53.6185 H           1 MOL       0.0814
     38 H17        54.9491   13.7665   52.7059 H           1 MOL       0.0814
     39 H18        54.4577   13.5239   54.3781 H           1 MOL       0.0814
     40 H19        53.7984   12.5399   50.8797 H           1 MOL       0.0725
     41 H20        52.6230   11.3260   51.3352 H           1 MOL       0.0725
     42 H21        56.0685    9.8243   53.2108 H           1 MOL       0.0225
     43 H22        52.6390   13.0471   52.9051 H           1 MOL       0.2025
@<TRIPOS>BOND
     1    21     1   1
     2     3     2  ar
     3     4     2  ar
     4     5     3  ar
     5     6     4  ar
     6    16     5  ar
     7    16     6  ar
     8     9     7  ar
     9     7    17  ar
    10    10     8  ar
    11     8    17  ar
    12    18     9  ar
    13    18    10  ar
    14    13    11   1
    15    11    19   1
    16    14    12   1
    17    12    19   1
    18    20    13   1
    19    20    14   1
    20    15    20   1
    21    21    15   1
    22    17    16   1
    23    18    21   1
    24    19    21   1
    25     1    22   1
    26     2    23   1
    27     3    24   1
    28     4    25   1
    29     5    26   1
    30     6    27   1
    31     7    28   1
    32     8    29   1
    33     9    30   1
    34    10    31   1
    35    11    32   1
    36    11    33   1
    37    12    34   1
    38    12    35   1
    39    13    36   1
    40    13    37   1
    41    14    38   1
    42    14    39   1
    43    15    40   1
    44    15    41   1
    45    19    42   1
    46    20    43   1
@<TRIPOS>SUBSTRUCTURE
     1  MOL      2

