@<TRIPOS>MOLECULE
3acw_ligand_051
    43    46
SMALL
GAST_HUCK
****
This file was generated by PARSER (from files_GN.cpp)

@<TRIPOS>ATOM
      1 OAA        55.4885   14.1262   50.6895 O.3         1 MOL      -0.4236
      2 CAB        49.7724    7.5262   48.2752 C.ar        1 MOL      -0.0563
      3 CAC        51.1411    7.2177   48.2509 C.ar        1 MOL      -0.0552
      4 CAD        49.3331    8.7368   48.8357 C.ar        1 MOL      -0.0552
      5 CAE        52.0783    8.1072   48.8146 C.ar        1 MOL      -0.0454
      6 CAF        50.2663    9.6282   49.4011 C.ar        1 MOL      -0.0454
      7 CAG        52.3368   10.7203   51.3239 C.ar        1 MOL      -0.0261
      8 CAH        53.7551   10.5895   49.3655 C.ar        1 MOL      -0.0261
      9 CAI        53.2214   11.6508   51.9031 C.ar        1 MOL      -0.0390
     10 CAJ        54.6275   11.5264   49.9520 C.ar        1 MOL      -0.0390
     11 CAK        56.6793   11.6463   53.3225 C.3         1 MOL      -0.0152
     12 CAL        57.7953   13.6836   52.3429 C.3         1 MOL      -0.0152
     13 CAM        56.2014   12.5322   54.5195 C.3         1 MOL      -0.0331
     14 CAN        57.2907   14.5215   53.5635 C.3         1 MOL      -0.0331
     15 CAO        54.9410   14.0183   53.0243 C.3         1 MOL      -0.0283
     16 CAP        51.6485    9.3164   49.4207 C.ar        1 MOL       0.0022
     17 CAQ        52.5774   10.1918   50.0335 C.ar        1 MOL       0.0101
     18 CAR        54.3723   12.1100   51.2201 C.ar        1 MOL      -0.0233
     19 CAS        56.7688   12.5350   52.0396 C.3         1 MOL      -0.0252
     20 NAT        56.0013   13.9584   54.0873 N.4         1 MOL       0.2304
     21 CAU        55.3453   13.1603   51.7462 C.3         1 MOL       0.0922
     22 H1         56.1312   13.7446   50.0534 H           1 MOL       0.1945
     23 H2         49.0917    6.8730   47.8731 H           1 MOL       0.0663
     24 H3         51.4643    6.3434   47.8271 H           1 MOL       0.0633
     25 H4         48.3389    8.9762   48.8332 H           1 MOL       0.0633
     26 H5         53.0666    7.8560   48.8023 H           1 MOL       0.0672
     27 H6         49.9277   10.5059   49.8014 H           1 MOL       0.0672
     28 H7         51.5065   10.4232   51.8465 H           1 MOL       0.0700
     29 H8         53.9642   10.2304   48.4369 H           1 MOL       0.0700
     30 H9         52.9888   11.9680   52.8395 H           1 MOL       0.0838
     31 H10        55.4524   11.7974   49.4134 H           1 MOL       0.0838
     32 H11        55.9863   10.8165   53.1583 H           1 MOL       0.0312
     33 H12        57.6574   11.2108   53.5435 H           1 MOL       0.0312
     34 H13        58.7766   13.2580   52.5583 H           1 MOL       0.0312
     35 H14        57.9149   14.3280   51.4696 H           1 MOL       0.0312
     36 H15        56.9421   12.4999   55.3221 H           1 MOL       0.0814
     37 H16        55.2689   12.1322   54.9279 H           1 MOL       0.0814
     38 H17        57.1485   15.5669   53.2729 H           1 MOL       0.0814
     39 H18        58.0408   14.5181   54.3612 H           1 MOL       0.0814
     40 H19        54.7888   15.0694   52.7554 H           1 MOL       0.0725
     41 H20        54.0032   13.7236   53.4837 H           1 MOL       0.0725
     42 H21        57.1303   11.9357   51.2016 H           1 MOL       0.0225
     43 H22        55.6979   14.5151   54.8883 H           1 MOL       0.2025
@<TRIPOS>BOND
     1    21     1   1
     2     3     2  ar
     3     4     2  ar
     4     5     3  ar
     5     6     4  ar
     6    16     5  ar
     7    16     6  ar
     8     9     7  ar
     9     7    17  ar
    10    10     8  ar
    11     8    17  ar
    12    18     9  ar
    13    18    10  ar
    14    13    11   1
    15    11    19   1
    16    14    12   1
    17    12    19   1
    18    20    13   1
    19    20    14   1
    20    15    20   1
    21    21    15   1
    22    17    16   1
    23    18    21   1
    24    19    21   1
    25     1    22   1
    26     2    23   1
    27     3    24   1
    28     4    25   1
    29     5    26   1
    30     6    27   1
    31     7    28   1
    32     8    29   1
    33     9    30   1
    34    10    31   1
    35    11    32   1
    36    11    33   1
    37    12    34   1
    38    12    35   1
    39    13    36   1
    40    13    37   1
    41    14    38   1
    42    14    39   1
    43    15    40   1
    44    15    41   1
    45    19    42   1
    46    20    43   1
@<TRIPOS>SUBSTRUCTURE
     1  MOL      2

