@<TRIPOS>MOLECULE
3acw_ligand_048
    43    46
SMALL
GAST_HUCK
****
This file was generated by PARSER (from files_GN.cpp)

@<TRIPOS>ATOM
      1 OAA        61.4350    6.6721   55.9878 O.3         1 MOL      -0.4236
      2 CAB        53.7177    1.7103   56.7441 C.ar        1 MOL      -0.0563
      3 CAC        54.7034    1.3814   55.7962 C.ar        1 MOL      -0.0552
      4 CAD        53.9771    2.6983   57.7116 C.ar        1 MOL      -0.0552
      5 CAE        55.9500    2.0359   55.8178 C.ar        1 MOL      -0.0454
      6 CAF        55.2276    3.3459   57.7411 C.ar        1 MOL      -0.0454
      7 CAG        58.4008    3.3809   57.8823 C.ar        1 MOL      -0.0261
      8 CAH        57.8810    4.5605   55.8287 C.ar        1 MOL      -0.0261
      9 CAI        59.6565    4.0195   57.9285 C.ar        1 MOL      -0.0390
     10 CAJ        59.1478    5.1716   55.8688 C.ar        1 MOL      -0.0390
     11 CAK        63.0085    3.7036   57.7866 C.3         1 MOL      -0.0152
     12 CAL        63.9507    5.5920   56.4750 C.3         1 MOL      -0.0152
     13 CAM        63.2667    4.5232   59.0985 C.3         1 MOL      -0.0331
     14 CAN        64.1550    6.4117   57.7943 C.3         1 MOL      -0.0331
     15 CAO        61.7526    6.3179   58.3590 C.3         1 MOL      -0.0283
     16 CAP        56.2277    3.0184   56.7955 C.ar        1 MOL       0.0022
     17 CAQ        57.4961    3.6513   56.8347 C.ar        1 MOL       0.0101
     18 CAR        60.0773    4.9265   56.9196 C.ar        1 MOL      -0.0233
     19 CAS        62.6661    4.6963   56.6203 C.3         1 MOL      -0.0252
     20 NAT        63.1459    5.9981   58.8301 N.4         1 MOL       0.2304
     21 CAU        61.4288    5.6236   56.9742 C.3         1 MOL       0.0922
     22 H1         60.7889    7.3472   56.2978 H           1 MOL       0.1945
     23 H2         52.8140    1.2332   56.7285 H           1 MOL       0.0663
     24 H3         54.5178    0.6596   55.0970 H           1 MOL       0.0633
     25 H4         53.2539    2.9486   58.3896 H           1 MOL       0.0633
     26 H5         56.6574    1.7767   55.1249 H           1 MOL       0.0672
     27 H6         55.3979    4.0646   58.4510 H           1 MOL       0.0672
     28 H7         58.1535    2.7144   58.6199 H           1 MOL       0.0700
     29 H8         57.2428    4.7919   55.0620 H           1 MOL       0.0700
     30 H9         60.2509    3.8224   58.7334 H           1 MOL       0.0838
     31 H10        59.3713    5.8163   55.1086 H           1 MOL       0.0838
     32 H11        62.2154    2.9704   57.9317 H           1 MOL       0.0312
     33 H12        63.9118    3.1388   57.5308 H           1 MOL       0.0312
     34 H13        64.8257    4.9626   56.2877 H           1 MOL       0.0312
     35 H14        63.8661    6.2708   55.6244 H           1 MOL       0.0312
     36 H15        64.2674    4.3062   59.4859 H           1 MOL       0.0814
     37 H16        62.5594    4.2278   59.8790 H           1 MOL       0.0814
     38 H17        64.0571    7.4823   57.5900 H           1 MOL       0.0814
     39 H18        65.1653    6.2523   58.1815 H           1 MOL       0.0814
     40 H19        61.6468    7.4045   58.2845 H           1 MOL       0.0725
     41 H20        61.0424    6.0128   59.1291 H           1 MOL       0.0725
     42 H21        62.4904    4.1503   55.6898 H           1 MOL       0.0225
     43 H22        63.3373    6.5099   59.6952 H           1 MOL       0.2025
@<TRIPOS>BOND
     1    21     1   1
     2     3     2  ar
     3     4     2  ar
     4     5     3  ar
     5     6     4  ar
     6    16     5  ar
     7    16     6  ar
     8     9     7  ar
     9     7    17  ar
    10    10     8  ar
    11     8    17  ar
    12    18     9  ar
    13    18    10  ar
    14    13    11   1
    15    11    19   1
    16    14    12   1
    17    12    19   1
    18    20    13   1
    19    20    14   1
    20    15    20   1
    21    21    15   1
    22    17    16   1
    23    18    21   1
    24    19    21   1
    25     1    22   1
    26     2    23   1
    27     3    24   1
    28     4    25   1
    29     5    26   1
    30     6    27   1
    31     7    28   1
    32     8    29   1
    33     9    30   1
    34    10    31   1
    35    11    32   1
    36    11    33   1
    37    12    34   1
    38    12    35   1
    39    13    36   1
    40    13    37   1
    41    14    38   1
    42    14    39   1
    43    15    40   1
    44    15    41   1
    45    19    42   1
    46    20    43   1
@<TRIPOS>SUBSTRUCTURE
     1  MOL      2

