@<TRIPOS>MOLECULE
3acw_ligand_074
    43    46
SMALL
GAST_HUCK
****
This file was generated by PARSER (from files_GN.cpp)

@<TRIPOS>ATOM
      1 OAA        59.8577   20.2317   53.6382 O.3         1 MOL      -0.4236
      2 CAB        55.2897   15.3444   59.7365 C.ar        1 MOL      -0.0563
      3 CAC        54.4938   16.3777   59.2141 C.ar        1 MOL      -0.0552
      4 CAD        56.5803   15.1160   59.2280 C.ar        1 MOL      -0.0552
      5 CAE        54.9896   17.1832   58.1767 C.ar        1 MOL      -0.0454
      6 CAF        57.0741   15.9212   58.1863 C.ar        1 MOL      -0.0454
      7 CAG        56.7209   19.2199   56.8188 C.ar        1 MOL      -0.0261
      8 CAH        57.4451   17.3224   55.4905 C.ar        1 MOL      -0.0261
      9 CAI        57.2718   20.0932   55.8694 C.ar        1 MOL      -0.0390
     10 CAJ        57.9691   18.2056   54.5302 C.ar        1 MOL      -0.0390
     11 CAK        56.7812   22.4872   53.6349 C.3         1 MOL      -0.0152
     12 CAL        59.1026   22.8505   52.7579 C.3         1 MOL      -0.0152
     13 CAM        56.3332   22.1033   52.1888 C.3         1 MOL      -0.0331
     14 CAN        58.6100   22.4261   51.3377 C.3         1 MOL      -0.0331
     15 CAO        57.8948   20.2106   52.1676 C.3         1 MOL      -0.0283
     16 CAP        56.2870   16.9667   57.6504 C.ar        1 MOL       0.0022
     17 CAQ        56.8004   17.8224   56.6444 C.ar        1 MOL       0.0101
     18 CAR        57.8756   19.6115   54.6771 C.ar        1 MOL      -0.0233
     19 CAS        58.2822   22.0754   53.8439 C.3         1 MOL      -0.0252
     20 NAT        57.4669   21.4579   51.4472 N.4         1 MOL       0.2304
     21 CAU        58.4549   20.5236   53.6228 C.3         1 MOL       0.0922
     22 H1         60.2042   20.6009   54.4777 H           1 MOL       0.1945
     23 H2         54.9088   14.7418   60.4662 H           1 MOL       0.0663
     24 H3         53.5498   16.5343   59.5741 H           1 MOL       0.0633
     25 H4         57.1495   14.3533   59.6039 H           1 MOL       0.0633
     26 H5         54.3924   17.9303   57.8156 H           1 MOL       0.0672
     27 H6         58.0203   15.7491   57.8393 H           1 MOL       0.0672
     28 H7         56.2906   19.6161   57.6635 H           1 MOL       0.0700
     29 H8         57.5415   16.3146   55.3446 H           1 MOL       0.0700
     30 H9         57.2405   21.0884   56.0813 H           1 MOL       0.0838
     31 H10        58.4317   17.8089   53.7107 H           1 MOL       0.0838
     32 H11        56.1239   21.9959   54.3529 H           1 MOL       0.0312
     33 H12        56.6705   23.5649   53.7809 H           1 MOL       0.0312
     34 H13        58.9646   23.9224   52.9082 H           1 MOL       0.0312
     35 H14        60.1719   22.6529   52.8635 H           1 MOL       0.0312
     36 H15        55.9965   22.9987   51.6605 H           1 MOL       0.0814
     37 H16        55.4780   21.4228   52.2235 H           1 MOL       0.0814
     38 H17        59.4273   21.9729   50.7757 H           1 MOL       0.0814
     39 H18        58.3035   23.3126   50.7799 H           1 MOL       0.0814
     40 H19        58.6482   19.6942   51.5652 H           1 MOL       0.0725
     41 H20        57.0372   19.5290   52.2097 H           1 MOL       0.0725
     42 H21        58.6441   22.3783   54.8281 H           1 MOL       0.0225
     43 H22        57.1513   21.2039   50.5136 H           1 MOL       0.2025
@<TRIPOS>BOND
     1    21     1   1
     2     3     2  ar
     3     4     2  ar
     4     5     3  ar
     5     6     4  ar
     6    16     5  ar
     7    16     6  ar
     8     9     7  ar
     9     7    17  ar
    10    10     8  ar
    11     8    17  ar
    12    18     9  ar
    13    18    10  ar
    14    13    11   1
    15    11    19   1
    16    14    12   1
    17    12    19   1
    18    20    13   1
    19    20    14   1
    20    15    20   1
    21    21    15   1
    22    17    16   1
    23    18    21   1
    24    19    21   1
    25     1    22   1
    26     2    23   1
    27     3    24   1
    28     4    25   1
    29     5    26   1
    30     6    27   1
    31     7    28   1
    32     8    29   1
    33     9    30   1
    34    10    31   1
    35    11    32   1
    36    11    33   1
    37    12    34   1
    38    12    35   1
    39    13    36   1
    40    13    37   1
    41    14    38   1
    42    14    39   1
    43    15    40   1
    44    15    41   1
    45    19    42   1
    46    20    43   1
@<TRIPOS>SUBSTRUCTURE
     1  MOL      2

