@<TRIPOS>MOLECULE
3acw_ligand_056
    43    46
SMALL
GAST_HUCK
****
This file was generated by PARSER (from files_GN.cpp)

@<TRIPOS>ATOM
      1 OAA        53.1112    7.5827   47.4875 O.3         1 MOL      -0.4236
      2 CAB        57.1744   13.2327   53.3439 C.ar        1 MOL      -0.0563
      3 CAC        56.6187   12.1470   54.0486 C.ar        1 MOL      -0.0552
      4 CAD        57.0514   13.2972   51.9439 C.ar        1 MOL      -0.0552
      5 CAE        55.9543   11.1192   53.3483 C.ar        1 MOL      -0.0454
      6 CAF        56.3827   12.2741   51.2482 C.ar        1 MOL      -0.0454
      7 CAG        55.5998    8.7799   51.3833 C.ar        1 MOL      -0.0261
      8 CAH        54.1359   10.3947   50.3247 C.ar        1 MOL      -0.0261
      9 CAI        55.0202    7.7544   50.6131 C.ar        1 MOL      -0.0390
     10 CAJ        53.5442    9.3583   49.5766 C.ar        1 MOL      -0.0390
     11 CAK        52.3977    5.4671   50.5579 C.3         1 MOL      -0.0152
     12 CAL        51.4209    5.4212   48.2415 C.3         1 MOL      -0.0152
     13 CAM        53.3719    4.3188   50.1326 C.3         1 MOL      -0.0331
     14 CAN        52.4241    4.2822   47.8628 C.3         1 MOL      -0.0331
     15 CAO        54.3589    5.7160   48.3575 C.3         1 MOL      -0.0283
     16 CAP        55.8316   11.1688   51.9406 C.ar        1 MOL       0.0022
     17 CAQ        55.1897   10.1218   51.2245 C.ar        1 MOL       0.0101
     18 CAR        54.0130    8.0195   49.6502 C.ar        1 MOL      -0.0233
     19 CAS        52.0832    6.3601   49.3079 C.3         1 MOL      -0.0252
     20 NAT        53.6909    4.4103   48.6648 N.4         1 MOL       0.2304
     21 CAU        53.4312    6.9575   48.7381 C.3         1 MOL       0.0922
     22 H1         53.8009    8.2596   47.3266 H           1 MOL       0.1945
     23 H2         57.6666   13.9721   53.8520 H           1 MOL       0.0663
     24 H3         56.6993   12.1085   55.0649 H           1 MOL       0.0633
     25 H4         57.4552   14.0868   51.4345 H           1 MOL       0.0633
     26 H5         55.5517   10.3439   53.8814 H           1 MOL       0.0672
     27 H6         56.3178   12.3344   50.2288 H           1 MOL       0.0672
     28 H7         56.3466    8.5426   52.0391 H           1 MOL       0.0700
     29 H8         53.7932   11.3533   50.2049 H           1 MOL       0.0700
     30 H9         55.3556    6.8084   50.7802 H           1 MOL       0.0838
     31 H10        52.7756    9.6069   48.9478 H           1 MOL       0.0838
     32 H11        52.8368    6.0648   51.3546 H           1 MOL       0.0312
     33 H12        51.4685    5.0428   50.9530 H           1 MOL       0.0312
     34 H13        50.4978    4.9888   48.6476 H           1 MOL       0.0312
     35 H14        51.1387    5.9876   47.3517 H           1 MOL       0.0312
     36 H15        52.9215    3.3449   50.3518 H           1 MOL       0.0814
     37 H16        54.2948    4.3721   50.7155 H           1 MOL       0.0814
     38 H17        52.6587    4.3250   46.7961 H           1 MOL       0.0814
     39 H18        51.9683    3.3052   48.0467 H           1 MOL       0.0814
     40 H19        54.6191    5.7413   47.2965 H           1 MOL       0.0725
     41 H20        55.3235    5.7314   48.8781 H           1 MOL       0.0725
     42 H21        51.3850    7.1600   49.5684 H           1 MOL       0.0225
     43 H22        54.3210    3.6467   48.4128 H           1 MOL       0.2025
@<TRIPOS>BOND
     1    21     1   1
     2     3     2  ar
     3     4     2  ar
     4     5     3  ar
     5     6     4  ar
     6    16     5  ar
     7    16     6  ar
     8     9     7  ar
     9     7    17  ar
    10    10     8  ar
    11     8    17  ar
    12    18     9  ar
    13    18    10  ar
    14    13    11   1
    15    11    19   1
    16    14    12   1
    17    12    19   1
    18    20    13   1
    19    20    14   1
    20    15    20   1
    21    21    15   1
    22    17    16   1
    23    18    21   1
    24    19    21   1
    25     1    22   1
    26     2    23   1
    27     3    24   1
    28     4    25   1
    29     5    26   1
    30     6    27   1
    31     7    28   1
    32     8    29   1
    33     9    30   1
    34    10    31   1
    35    11    32   1
    36    11    33   1
    37    12    34   1
    38    12    35   1
    39    13    36   1
    40    13    37   1
    41    14    38   1
    42    14    39   1
    43    15    40   1
    44    15    41   1
    45    19    42   1
    46    20    43   1
@<TRIPOS>SUBSTRUCTURE
     1  MOL      2

