@<TRIPOS>MOLECULE
3acw_ligand_068
    43    46
SMALL
GAST_HUCK
****
This file was generated by PARSER (from files_GN.cpp)

@<TRIPOS>ATOM
      1 OAA        57.0751    2.5236   54.5045 O.3         1 MOL      -0.4236
      2 CAB        51.1750   -3.1639   58.3112 C.ar        1 MOL      -0.0563
      3 CAC        51.2793   -3.2841   56.9139 C.ar        1 MOL      -0.0552
      4 CAD        51.8818   -2.1520   58.9847 C.ar        1 MOL      -0.0552
      5 CAE        52.0831   -2.3859   56.1871 C.ar        1 MOL      -0.0454
      6 CAF        52.6753   -1.2446   58.2591 C.ar        1 MOL      -0.0454
      7 CAG        54.6188   -0.8055   55.3123 C.ar        1 MOL      -0.0261
      8 CAH        53.1866    0.9648   56.1514 C.ar        1 MOL      -0.0261
      9 CAI        55.3546    0.1446   54.5826 C.ar        1 MOL      -0.0390
     10 CAJ        53.9063    1.9046   55.3939 C.ar        1 MOL      -0.0390
     11 CAK        54.0650    4.0566   52.7431 C.3         1 MOL      -0.0152
     12 CAL        56.4284    4.8751   52.9799 C.3         1 MOL      -0.0152
     13 CAM        54.4444    3.5195   51.3228 C.3         1 MOL      -0.0331
     14 CAN        56.7780    4.2642   51.5828 C.3         1 MOL      -0.0331
     15 CAO        56.1137    2.0074   52.3004 C.3         1 MOL      -0.0283
     16 CAP        52.7781   -1.3482   56.8514 C.ar        1 MOL       0.0022
     17 CAQ        53.5279   -0.4035   56.1105 C.ar        1 MOL       0.0101
     18 CAR        54.9969    1.5191   54.5726 C.ar        1 MOL      -0.0233
     19 CAS        55.3279    3.9965   53.6709 C.3         1 MOL      -0.0252
     20 NAT        55.8854    3.0933   51.2887 N.4         1 MOL       0.2304
     21 CAU        55.8355    2.4992   53.7836 C.3         1 MOL       0.0922
     22 H1         56.8548    2.8686   55.3971 H           1 MOL       0.1945
     23 H2         50.5843   -3.8119   58.8370 H           1 MOL       0.0663
     24 H3         50.7652   -4.0192   56.4237 H           1 MOL       0.0633
     25 H4         51.8147   -2.0716   60.0021 H           1 MOL       0.0633
     26 H5         52.1350   -2.4781   55.1691 H           1 MOL       0.0672
     27 H6         53.1800   -0.5111   58.7648 H           1 MOL       0.0672
     28 H7         54.8973   -1.7899   55.2714 H           1 MOL       0.0700
     29 H8         52.4002    1.2880   56.7224 H           1 MOL       0.0700
     30 H9         56.1616   -0.1834   54.0452 H           1 MOL       0.0838
     31 H10        53.6173    2.8784   55.4694 H           1 MOL       0.0838
     32 H11        53.2495    3.4600   53.1553 H           1 MOL       0.0312
     33 H12        53.7038    5.0870   52.6735 H           1 MOL       0.0312
     34 H13        56.0625    5.8987   52.8577 H           1 MOL       0.0312
     35 H14        57.3236    4.9283   53.6047 H           1 MOL       0.0312
     36 H15        54.2717    4.2957   50.5718 H           1 MOL       0.0814
     37 H16        53.8012    2.6752   51.0568 H           1 MOL       0.0814
     38 H17        57.8256    3.9482   51.5624 H           1 MOL       0.0814
     39 H18        56.6597    5.0188   50.8005 H           1 MOL       0.0814
     40 H19        57.1405    1.6417   52.2058 H           1 MOL       0.0725
     41 H20        55.4700    1.1650   52.0300 H           1 MOL       0.0725
     42 H21        55.1089    4.4232   54.6525 H           1 MOL       0.0225
     43 H22        56.1045    2.7316   50.3580 H           1 MOL       0.2025
@<TRIPOS>BOND
     1    21     1   1
     2     3     2  ar
     3     4     2  ar
     4     5     3  ar
     5     6     4  ar
     6    16     5  ar
     7    16     6  ar
     8     9     7  ar
     9     7    17  ar
    10    10     8  ar
    11     8    17  ar
    12    18     9  ar
    13    18    10  ar
    14    13    11   1
    15    11    19   1
    16    14    12   1
    17    12    19   1
    18    20    13   1
    19    20    14   1
    20    15    20   1
    21    21    15   1
    22    17    16   1
    23    18    21   1
    24    19    21   1
    25     1    22   1
    26     2    23   1
    27     3    24   1
    28     4    25   1
    29     5    26   1
    30     6    27   1
    31     7    28   1
    32     8    29   1
    33     9    30   1
    34    10    31   1
    35    11    32   1
    36    11    33   1
    37    12    34   1
    38    12    35   1
    39    13    36   1
    40    13    37   1
    41    14    38   1
    42    14    39   1
    43    15    40   1
    44    15    41   1
    45    19    42   1
    46    20    43   1
@<TRIPOS>SUBSTRUCTURE
     1  MOL      2

