@<TRIPOS>MOLECULE
3acw_ligand_072
    43    46
SMALL
GAST_HUCK
****
This file was generated by PARSER (from files_GN.cpp)

@<TRIPOS>ATOM
      1 OAA        51.8762    8.5819   50.8481 O.3         1 MOL      -0.4236
      2 CAB        56.9516   16.1641   52.1262 C.ar        1 MOL      -0.0563
      3 CAC        55.7727   16.0412   51.3666 C.ar        1 MOL      -0.0552
      4 CAD        57.5231   15.0215   52.7183 C.ar        1 MOL      -0.0552
      5 CAE        55.1714   14.7817   51.1992 C.ar        1 MOL      -0.0454
      6 CAF        56.9304   13.7611   52.5373 C.ar        1 MOL      -0.0454
      7 CAG        55.9080   11.2680   51.0463 C.ar        1 MOL      -0.0261
      8 CAH        53.7976   12.1031   51.8782 C.ar        1 MOL      -0.0261
      9 CAI        55.3083   10.0229   50.7851 C.ar        1 MOL      -0.0390
     10 CAJ        53.2121   10.8411   51.6526 C.ar        1 MOL      -0.0390
     11 CAK        55.1600    6.8148   51.6202 C.3         1 MOL      -0.0152
     12 CAL        52.8188    6.0005   51.5564 C.3         1 MOL      -0.0152
     13 CAM        55.3487    6.3498   50.1340 C.3         1 MOL      -0.0331
     14 CAN        53.0173    5.5512   50.0700 C.3         1 MOL      -0.0331
     15 CAO        53.5667    7.8380   49.3251 C.3         1 MOL      -0.0283
     16 CAP        55.7452   13.6217   51.7727 C.ar        1 MOL       0.0022
     17 CAQ        55.1537   12.3414   51.5707 C.ar        1 MOL       0.0101
     18 CAR        53.9444    9.7642   51.0748 C.ar        1 MOL      -0.0233
     19 CAS        53.6809    7.2869   51.8223 C.3         1 MOL      -0.0252
     20 NAT        54.0451    6.4130   49.3883 N.4         1 MOL       0.2304
     21 CAU        53.3020    8.4193   50.7762 C.3         1 MOL       0.0922
     22 H1         51.6517    9.2622   50.1758 H           1 MOL       0.1945
     23 H2         57.3902   17.0773   52.2500 H           1 MOL       0.0663
     24 H3         55.3598   16.8717   50.9342 H           1 MOL       0.0633
     25 H4         58.3743   15.1117   53.2798 H           1 MOL       0.0633
     26 H5         54.3198   14.7158   50.6325 H           1 MOL       0.0672
     27 H6         57.3623   12.9425   52.9783 H           1 MOL       0.0672
     28 H7         56.9013   11.3936   50.8111 H           1 MOL       0.0700
     29 H8         53.2258   12.8472   52.2868 H           1 MOL       0.0700
     30 H9         55.8900    9.3117   50.3528 H           1 MOL       0.0838
     31 H10        52.2305   10.7258   51.9174 H           1 MOL       0.0838
     32 H11        55.8580    7.6056   51.8866 H           1 MOL       0.0312
     33 H12        55.3850    5.9861   52.2941 H           1 MOL       0.0312
     34 H13        53.1233    5.1986   52.2323 H           1 MOL       0.0312
     35 H14        51.7639    6.1896   51.7572 H           1 MOL       0.0312
     36 H15        55.7435    5.3322   50.1043 H           1 MOL       0.0814
     37 H16        56.0852    6.9770   49.6297 H           1 MOL       0.0814
     38 H17        52.0672    5.6093   49.5335 H           1 MOL       0.0814
     39 H18        53.3331    4.5054   50.0353 H           1 MOL       0.0814
     40 H19        52.6587    7.8699   48.7083 H           1 MOL       0.0725
     41 H20        54.2985    8.4374   48.7871 H           1 MOL       0.0725
     42 H21        53.5292    7.6364   52.8484 H           1 MOL       0.0225
     43 H22        54.1907    6.0630   48.4402 H           1 MOL       0.2025
@<TRIPOS>BOND
     1    21     1   1
     2     3     2  ar
     3     4     2  ar
     4     5     3  ar
     5     6     4  ar
     6    16     5  ar
     7    16     6  ar
     8     9     7  ar
     9     7    17  ar
    10    10     8  ar
    11     8    17  ar
    12    18     9  ar
    13    18    10  ar
    14    13    11   1
    15    11    19   1
    16    14    12   1
    17    12    19   1
    18    20    13   1
    19    20    14   1
    20    15    20   1
    21    21    15   1
    22    17    16   1
    23    18    21   1
    24    19    21   1
    25     1    22   1
    26     2    23   1
    27     3    24   1
    28     4    25   1
    29     5    26   1
    30     6    27   1
    31     7    28   1
    32     8    29   1
    33     9    30   1
    34    10    31   1
    35    11    32   1
    36    11    33   1
    37    12    34   1
    38    12    35   1
    39    13    36   1
    40    13    37   1
    41    14    38   1
    42    14    39   1
    43    15    40   1
    44    15    41   1
    45    19    42   1
    46    20    43   1
@<TRIPOS>SUBSTRUCTURE
     1  MOL      2

