@<TRIPOS>MOLECULE
3acw_ligand_003
    43    46
SMALL
GAST_HUCK
****
This file was generated by PARSER (from files_GN.cpp)

@<TRIPOS>ATOM
      1 OAA        56.5213   10.0433   50.7271 O.3         1 MOL      -0.4236
      2 CAB        57.3881   18.9642   52.5275 C.ar        1 MOL      -0.0563
      3 CAC        57.8696   17.9919   53.4192 C.ar        1 MOL      -0.0552
      4 CAD        56.5800   18.5788   51.4463 C.ar        1 MOL      -0.0552
      5 CAE        57.5379   16.6378   53.2298 C.ar        1 MOL      -0.0454
      6 CAF        56.2576   17.2252   51.2584 C.ar        1 MOL      -0.0454
      7 CAG        55.2037   14.4381   51.2784 C.ar        1 MOL      -0.0261
      8 CAH        57.2338   13.7817   52.4017 C.ar        1 MOL      -0.0261
      9 CAI        54.8803   13.0861   51.0699 C.ar        1 MOL      -0.0390
     10 CAJ        56.8832   12.4283   52.2345 C.ar        1 MOL      -0.0390
     11 CAK        52.7806   10.4499   51.3772 C.3         1 MOL      -0.0152
     12 CAL        54.1166    8.6018   50.3385 C.3         1 MOL      -0.0152
     13 CAM        52.8058    9.6526   52.7201 C.3         1 MOL      -0.0331
     14 CAN        54.1805    7.8760   51.7239 C.3         1 MOL      -0.0331
     15 CAO        55.2553    9.8203   52.8082 C.3         1 MOL      -0.0283
     16 CAP        56.7271   16.2139   52.1428 C.ar        1 MOL       0.0022
     17 CAQ        56.3912   14.8288   51.9483 C.ar        1 MOL       0.0101
     18 CAR        55.6874   12.0395   51.5795 C.ar        1 MOL      -0.0233
     19 CAS        54.0964   10.1555   50.5714 C.3         1 MOL      -0.0252
     20 NAT        54.0836    8.8733   52.8432 N.4         1 MOL       0.2304
     21 CAU        55.3738   10.5673   51.4168 C.3         1 MOL       0.0922
     22 H1         56.4439   10.3703   49.8064 H           1 MOL       0.1945
     23 H2         57.6273   19.9490   52.6640 H           1 MOL       0.0663
     24 H3         58.4581   18.2697   54.2079 H           1 MOL       0.0633
     25 H4         56.2315   19.2833   50.7915 H           1 MOL       0.0633
     26 H5         57.8902   15.9669   53.9164 H           1 MOL       0.0672
     27 H6         55.6848   16.9885   50.4466 H           1 MOL       0.0672
     28 H7         54.5449   15.1381   50.9294 H           1 MOL       0.0700
     29 H8         58.1310   13.9892   52.8467 H           1 MOL       0.0700
     30 H9         54.0383   12.8881   50.5308 H           1 MOL       0.0838
     31 H10        57.5287   11.7172   52.5885 H           1 MOL       0.0838
     32 H11        52.6679   11.5104   51.5985 H           1 MOL       0.0312
     33 H12        51.9093   10.1568   50.7816 H           1 MOL       0.0312
     34 H13        53.2169    8.2932   49.7970 H           1 MOL       0.0312
     35 H14        54.9712    8.3097   49.7225 H           1 MOL       0.0312
     36 H15        51.9486    8.9746   52.7655 H           1 MOL       0.0814
     37 H16        52.7111   10.3403   53.5654 H           1 MOL       0.0814
     38 H17        55.1139    7.3116   51.8119 H           1 MOL       0.0814
     39 H18        53.3633    7.1530   51.8047 H           1 MOL       0.0814
     40 H19        56.1692    9.2586   53.0215 H           1 MOL       0.0725
     41 H20        55.1438   10.5343   53.6306 H           1 MOL       0.0725
     42 H21        54.0800   10.6656   49.6042 H           1 MOL       0.0225
     43 H22        54.0829    8.3727   53.7345 H           1 MOL       0.2025
@<TRIPOS>BOND
     1    21     1   1
     2     3     2  ar
     3     4     2  ar
     4     5     3  ar
     5     6     4  ar
     6    16     5  ar
     7    16     6  ar
     8     9     7  ar
     9     7    17  ar
    10    10     8  ar
    11     8    17  ar
    12    18     9  ar
    13    18    10  ar
    14    13    11   1
    15    11    19   1
    16    14    12   1
    17    12    19   1
    18    20    13   1
    19    20    14   1
    20    15    20   1
    21    21    15   1
    22    17    16   1
    23    18    21   1
    24    19    21   1
    25     1    22   1
    26     2    23   1
    27     3    24   1
    28     4    25   1
    29     5    26   1
    30     6    27   1
    31     7    28   1
    32     8    29   1
    33     9    30   1
    34    10    31   1
    35    11    32   1
    36    11    33   1
    37    12    34   1
    38    12    35   1
    39    13    36   1
    40    13    37   1
    41    14    38   1
    42    14    39   1
    43    15    40   1
    44    15    41   1
    45    19    42   1
    46    20    43   1
@<TRIPOS>SUBSTRUCTURE
     1  MOL      2

