@<TRIPOS>MOLECULE
3acw_ligand_043
    43    46
SMALL
GAST_HUCK
****
This file was generated by PARSER (from files_GN.cpp)

@<TRIPOS>ATOM
      1 OAA        53.0014    7.3140   49.5370 O.3         1 MOL      -0.4236
      2 CAB        52.8710   14.1376   55.7084 C.ar        1 MOL      -0.0563
      3 CAC        53.9404   14.0214   54.8007 C.ar        1 MOL      -0.0552
      4 CAD        51.9373   13.0931   55.8270 C.ar        1 MOL      -0.0552
      5 CAE        54.0695   12.8701   54.0052 C.ar        1 MOL      -0.0454
      6 CAF        52.0601   11.9395   55.0310 C.ar        1 MOL      -0.0454
      7 CAG        54.1135    9.6251   53.6832 C.ar        1 MOL      -0.0261
      8 CAH        52.5144   10.5435   52.1113 C.ar        1 MOL      -0.0261
      9 CAI        54.2330    8.4760   52.8810 C.ar        1 MOL      -0.0390
     10 CAJ        52.6429    9.3888   51.3168 C.ar        1 MOL      -0.0390
     11 CAK        53.9539    5.1592   52.5509 C.3         1 MOL      -0.0152
     12 CAL        53.1565    4.6205   50.2654 C.3         1 MOL      -0.0152
     13 CAM        55.4365    5.0163   52.0672 C.3         1 MOL      -0.0331
     14 CAN        54.6458    4.4805   49.7926 C.3         1 MOL      -0.0331
     15 CAO        55.1825    6.8086   50.4025 C.3         1 MOL      -0.0283
     16 CAP        53.1251   11.8202   54.1119 C.ar        1 MOL       0.0022
     17 CAQ        53.2455   10.6681   53.3085 C.ar        1 MOL       0.0101
     18 CAR        53.4987    8.3104   51.6741 C.ar        1 MOL      -0.0233
     19 CAS        53.0817    5.7301   51.3783 C.3         1 MOL      -0.0252
     20 NAT        55.5498    5.3648   50.6097 N.4         1 MOL       0.2304
     21 CAU        53.6736    7.0829   50.7896 C.3         1 MOL       0.0922
     22 H1         52.0474    7.3425   49.7562 H           1 MOL       0.1945
     23 H2         52.7729   14.9790   56.2813 H           1 MOL       0.0663
     24 H3         54.6198   14.7812   54.7155 H           1 MOL       0.0633
     25 H4         51.1615   13.1795   56.4842 H           1 MOL       0.0633
     26 H5         54.8481   12.8018   53.3449 H           1 MOL       0.0672
     27 H6         51.3676   11.1908   55.1285 H           1 MOL       0.0672
     28 H7         54.6688    9.7014   54.5404 H           1 MOL       0.0700
     29 H8         51.8946   11.2983   51.8044 H           1 MOL       0.0700
     30 H9         54.9097    7.7748   53.1770 H           1 MOL       0.0838
     31 H10        52.1020    9.3680   50.4527 H           1 MOL       0.0838
     32 H11        53.8886    5.7837   53.4375 H           1 MOL       0.0312
     33 H12        53.5734    4.1792   52.8555 H           1 MOL       0.0312
     34 H13        52.7968    3.6627   50.6560 H           1 MOL       0.0312
     35 H14        52.5098    4.8714   49.4202 H           1 MOL       0.0312
     36 H15        55.7857    3.9925   52.2262 H           1 MOL       0.0814
     37 H16        56.0875    5.6660   52.6578 H           1 MOL       0.0814
     38 H17        54.7257    4.7486   48.7343 H           1 MOL       0.0814
     39 H18        54.9707    3.4398   49.8825 H           1 MOL       0.0814
     40 H19        55.3748    7.0686   49.3588 H           1 MOL       0.0725
     41 H20        55.8636    7.4382   50.9784 H           1 MOL       0.0725
     42 H21        52.0470    5.8654   51.7072 H           1 MOL       0.0225
     43 H22        56.5150    5.2205   50.3060 H           1 MOL       0.2025
@<TRIPOS>BOND
     1    21     1   1
     2     3     2  ar
     3     4     2  ar
     4     5     3  ar
     5     6     4  ar
     6    16     5  ar
     7    16     6  ar
     8     9     7  ar
     9     7    17  ar
    10    10     8  ar
    11     8    17  ar
    12    18     9  ar
    13    18    10  ar
    14    13    11   1
    15    11    19   1
    16    14    12   1
    17    12    19   1
    18    20    13   1
    19    20    14   1
    20    15    20   1
    21    21    15   1
    22    17    16   1
    23    18    21   1
    24    19    21   1
    25     1    22   1
    26     2    23   1
    27     3    24   1
    28     4    25   1
    29     5    26   1
    30     6    27   1
    31     7    28   1
    32     8    29   1
    33     9    30   1
    34    10    31   1
    35    11    32   1
    36    11    33   1
    37    12    34   1
    38    12    35   1
    39    13    36   1
    40    13    37   1
    41    14    38   1
    42    14    39   1
    43    15    40   1
    44    15    41   1
    45    19    42   1
    46    20    43   1
@<TRIPOS>SUBSTRUCTURE
     1  MOL      2

