@<TRIPOS>MOLECULE
3ag9_ligand_069
   140   142
SMALL
GAST_HUCK
****
This file was generated by PARSER (from files_GN.cpp)

@<TRIPOS>ATOM
      1 N1         -1.7196   11.7109   16.1358 N.ar        1 A02      -0.2698
      2 C2         -1.7349   12.7618   15.2714 C.ar        1 A02       0.0533
      3 N3         -0.6049   13.1039   14.5902 N.ar        1 A02      -0.2714
      4 C4          0.5356   12.3881   14.7720 C.ar        1 A02       0.1613
      5 C5          0.5699   11.3116   15.6539 C.ar        1 A02       0.1045
      6 C6         -0.6001   10.9711   16.3543 C.ar        1 A02       0.1298
      7 N6         -0.6320    9.9504   17.2298 N.pl3       1 A02      -0.3152
      8 N7          1.8113   10.8016   15.6581 N.2         1 A02      -0.2958
      9 C8          2.5230   11.5505   14.7929 C.2         1 A02       0.1123
     10 N9          1.7638   12.5237   14.2438 N.pl3       1 A02      -0.1918
     11 OAL         6.3390   13.0500   12.3534 O.2         1 A02      -0.3941
     12 OAN         5.0380   15.8802   13.5348 O.3         1 A02      -0.3840
     13 OAO         2.3060   15.9830   13.6835 O.3         1 A02      -0.3834
     14 OBV         3.1395   13.0133   12.3823 O.3         1 A02      -0.3181
     15 CCC         5.3626   13.2843   11.6502 C.2         1 A02       0.2080
     16 CCK         4.3492   14.6299   13.5872 C.3         1 A02       0.1295
     17 CCL         2.8905   14.7335   14.0612 C.3         1 A02       0.1408
     18 CCM         4.2004   13.9639   12.2007 C.3         1 A02       0.1788
     19 CCN         2.2011   13.5494   13.3314 C.3         1 A02       0.2035
     20 CBZ        11.2051   11.2686    8.0044 C.2         1 A02       0.1782
     21 OAI        11.9954   12.0879    8.4563 O.2         1 A02      -0.3969
     22 CBG        10.0003   11.7583    7.3537 C.3         1 A02       0.0374
     23 CAX         8.7018   11.0660    7.8597 C.3         1 A02      -0.0360
     24 CAU         7.3813   11.7151    7.3527 C.3         1 A02      -0.0492
     25 CAW         6.6894   12.7062    8.3321 C.3         1 A02      -0.0326
     26 CBD         6.2836   12.0782    9.6936 C.3         1 A02       0.0310
     27 NBR         5.3206   12.8792   10.3858 N.am        1 A02      -0.2847
     28 NBS        11.4227    9.9579    8.0931 N.am        1 A02      -0.2656
     29 CCI        12.4911    9.2420    8.7363 C.3         1 A02       0.1308
     30 CCB        13.7548    9.4517    8.0360 C.2         1 A02       0.2016
     31 OAK        14.2949    8.5040    7.4796 O.2         1 A02      -0.3945
     32 CBJ        12.5628    9.4688   10.2814 C.3         1 A02      -0.0122
     33 CAZ        13.6822    8.7082   11.0410 C.3         1 A02      -0.0440
     34 CAS        13.8634    7.2212   10.6318 C.3         1 A02      -0.0124
     35 CAR        15.2595    6.6702   10.9990 C.3         1 A02      -0.0354
     36 NAC        16.3218    7.3904   10.2872 N.4         1 A02       0.2185
     37 CCA        16.4679   15.7867    4.6854 C.2         1 A02       0.1782
     38 OAJ        16.6512   15.9934    3.4865 O.2         1 A02      -0.3969
     39 CBH        15.9370   14.4916    5.0661 C.3         1 A02       0.0374
     40 CAY        17.0497   13.4985    5.5103 C.3         1 A02      -0.0360
     41 CAT        16.6880   12.0024    5.3115 C.3         1 A02      -0.0492
     42 CAV        15.3880   11.5074    5.9947 C.3         1 A02      -0.0326
     43 CBC        15.5808   10.9950    7.4460 C.3         1 A02       0.0310
     44 NBQ        14.3411   10.6411    8.0656 N.am        1 A02      -0.2851
     45 NBT        16.6819   16.7360    5.5897 N.am        1 A02      -0.2656
     46 CCJ        17.1114   18.0869    5.3138 C.3         1 A02       0.1310
     47 CBK        18.2919   18.5563    6.2260 C.3         1 A02      -0.0092
     48 CBB        19.4016   17.5208    6.5614 C.3         1 A02      -0.0156
     49 CBF        19.1196   16.5367    7.7433 C.3         1 A02       0.0627
     50 NBP        18.1990   16.9319    8.7139 N.pl3       1 A02      -0.2723
     51 CBX        18.1549   18.0303    9.3782 C.cat       1 A02       0.2882
     52 NAB        18.9937   18.9874    9.2908 N.pl3       1 A02      -0.2849
     53 NAE        17.1764   18.1913   10.1843 N.pl3       1 A02      -0.2849
     54 CCD        15.9323   18.9491    5.3575 C.2         1 A02       0.2039
     55 OAM        15.7982   19.8187    6.2134 O.2         1 A02      -0.3944
     56 N          15.0052   18.7895    4.4196 N.am        1 A02      -0.2637
     57 CA         13.7956   19.5451    4.2533 C.3         1 A02       0.1307
     58 CB         12.8551   18.8001    3.2585 C.3         1 A02      -0.0092
     59 CG         12.2304   17.5019    3.8471 C.3         1 A02      -0.0156
     60 CD         11.5998   16.5764    2.7746 C.3         1 A02       0.0627
     61 NE         10.3190   16.9501    2.3571 N.pl3       1 A02      -0.2723
     62 CZ          9.2205   16.8846    3.0142 C.cat       1 A02       0.2882
     63 NH1         9.1039   16.4301    4.2050 N.pl3       1 A02      -0.2849
     64 NH2         8.1595   17.3003    2.4346 N.pl3       1 A02      -0.2849
     65 C          14.1001   20.8952    3.7984 C.2         1 A02       0.1992
     66 O          13.5722   21.8654    4.3264 O.2         1 A02      -0.3947
     67 NAF        14.9761   21.1259    2.8419 N.am        1 A02      -0.2990
     68 H1         -2.5906   13.2977   15.1339 H           1 A02       0.0996
     69 H2          0.1624    9.4201   17.3929 H           1 A02       0.1820
     70 H3         -1.4546    9.7451   17.7005 H           1 A02       0.1820
     71 H4          3.5127   11.3931   14.5938 H           1 A02       0.1349
     72 H5          4.5516   16.4269   12.8820 H           1 A02       0.2102
     73 H6          1.4057   15.9747   14.0754 H           1 A02       0.2101
     74 H7          4.8907   13.9708   14.2711 H           1 A02       0.0673
     75 H8          2.8337   14.6469   15.1514 H           1 A02       0.0678
     76 H9          3.8750   14.7243   11.4802 H           1 A02       0.0869
     77 H10         1.3440   13.9145   12.7565 H           1 A02       0.0998
     78 H11        10.0992   11.5826    6.2790 H           1 A02       0.0502
     79 H12         9.9047   12.8390    7.5013 H           1 A02       0.0502
     80 H13         8.7057   11.0320    8.9518 H           1 A02       0.0290
     81 H14         8.7150   10.0291    7.5110 H           1 A02       0.0290
     82 H15         6.6665   10.9188    7.1225 H           1 A02       0.0267
     83 H16         7.5787   12.2365    6.4110 H           1 A02       0.0267
     84 H17         5.7880   13.0794    7.8356 H           1 A02       0.0285
     85 H18         7.3448   13.5629    8.5080 H           1 A02       0.0285
     86 H19         7.1808   11.9087   10.2938 H           1 A02       0.0520
     87 H20         5.8137   11.1077    9.5206 H           1 A02       0.0520
     88 H21         4.5208   13.1068    9.8845 H           1 A02       0.1851
     89 H22        10.7392    9.3979    7.6937 H           1 A02       0.1883
     90 H23        12.2156    8.1909    8.6060 H           1 A02       0.0800
     91 H24        11.5974    9.1985   10.7159 H           1 A02       0.0312
     92 H25        12.7216   10.5281   10.4803 H           1 A02       0.0312
     93 H26        13.4538    8.7416   12.1093 H           1 A02       0.0269
     94 H27        14.6232    9.2431   10.8971 H           1 A02       0.0269
     95 H28        13.7224    7.1063    9.5538 H           1 A02       0.0317
     96 H29        13.1034    6.6194   11.1362 H           1 A02       0.0317
     97 H30        15.3164    5.6156   10.7261 H           1 A02       0.0813
     98 H31        15.4318    6.7583   12.0743 H           1 A02       0.0813
     99 H32        17.2002    6.8819   10.3740 H           1 A02       0.1994
    100 H33        16.4350    8.3141   10.7053 H           1 A02       0.1994
    101 H34        16.0811    7.4835    9.2970 H           1 A02       0.1994
    102 H35        15.3803   14.0839    4.2162 H           1 A02       0.0502
    103 H36        15.2105   14.6090    5.8779 H           1 A02       0.0502
    104 H37        17.2851   13.6837    6.5597 H           1 A02       0.0290
    105 H38        17.9627   13.6865    4.9386 H           1 A02       0.0290
    106 H39        17.5245   11.3984    5.6693 H           1 A02       0.0267
    107 H40        16.5959   11.8188    4.2382 H           1 A02       0.0267
    108 H41        14.9974   10.6919    5.3820 H           1 A02       0.0285
    109 H42        14.6365   12.3014    5.9889 H           1 A02       0.0285
    110 H43        16.0332   11.7834    8.0515 H           1 A02       0.0520
    111 H44        16.2530   10.1342    7.4553 H           1 A02       0.0520
    112 H45        13.9070   11.3342    8.5854 H           1 A02       0.1851
    113 H46        16.5031   16.5060    6.5224 H           1 A02       0.1883
    114 H47        17.5091   18.1543    4.2934 H           1 A02       0.0800
    115 H48        17.9025   18.9586    7.1698 H           1 A02       0.0313
    116 H49        18.7765   19.3972    5.7171 H           1 A02       0.0313
    117 H50        20.3077   18.0817    6.8123 H           1 A02       0.0301
    118 H51        19.6306   16.9386    5.6633 H           1 A02       0.0301
    119 H52        20.0637   16.2990    8.2445 H           1 A02       0.0689
    120 H53        18.7439   15.5993    7.3271 H           1 A02       0.0689
    121 H54        17.5035   16.3331    8.8919 H           1 A02       0.2642
    122 H55        18.8570   19.7648    9.7946 H           1 A02       0.2615
    123 H56        19.7359   18.9243    8.7322 H           1 A02       0.2615
    124 H57        16.5467   17.5140   10.2883 H           1 A02       0.2615
    125 H58        17.1073   18.9900   10.6607 H           1 A02       0.2615
    126 H59        15.1684   18.0816    3.7762 H           1 A02       0.1883
    127 H60        13.2862   19.5872    5.2232 H           1 A02       0.0800
    128 H61        13.4153   18.5579    2.3520 H           1 A02       0.0313
    129 H62        12.0374   19.4653    2.9698 H           1 A02       0.0313
    130 H63        11.4734   17.7806    4.5843 H           1 A02       0.0301
    131 H64        12.9982   16.9292    4.3753 H           1 A02       0.0301
    132 H65        11.5900   15.5462    3.1381 H           1 A02       0.0689
    133 H66        12.2460   16.5972    1.8957 H           1 A02       0.0689
    134 H67        10.2546   17.2874    1.4886 H           1 A02       0.2642
    135 H68         8.2679   16.4165    4.6212 H           1 A02       0.2615
    136 H69         9.8516   16.1106    4.6617 H           1 A02       0.2615
    137 H70         8.2024   17.6384    1.5647 H           1 A02       0.2615
    138 H71         7.3381   17.2704    2.8798 H           1 A02       0.2615
    139 H72        15.1691   22.0350    2.5716 H           1 A02       0.1815
    140 H73        15.4297   20.3862    2.4094 H           1 A02       0.1815
@<TRIPOS>BOND
     1     2     1  ar
     2     6     1  ar
     3     3     2  ar
     4     4     3  ar
     5     4     5  ar
     6    10     4   1
     7     5     6  ar
     8     8     5   1
     9     6     7   1
    10     9     8   2
    11    10     9   1
    12    19    10   1
    13    15    11   2
    14    16    12   1
    15    17    13   1
    16    18    14   1
    17    14    19   1
    18    15    18   1
    19    27    15  am
    20    16    17   1
    21    18    16   1
    22    17    19   1
    23    20    21   2
    24    20    22   1
    25    28    20  am
    26    22    23   1
    27    23    24   1
    28    24    25   1
    29    25    26   1
    30    26    27   1
    31    29    28   1
    32    30    29   1
    33    29    32   1
    34    30    31   2
    35    44    30  am
    36    32    33   1
    37    33    34   1
    38    34    35   1
    39    35    36   1
    40    37    38   2
    41    39    37   1
    42    37    45  am
    43    40    39   1
    44    41    40   1
    45    42    41   1
    46    43    42   1
    47    43    44   1
    48    45    46   1
    49    46    47   1
    50    46    54   1
    51    47    48   1
    52    48    49   1
    53    49    50   1
    54    50    51  ar
    55    51    52  ar
    56    51    53  ar
    57    54    55   2
    58    54    56  am
    59    56    57   1
    60    57    58   1
    61    57    65   1
    62    58    59   1
    63    59    60   1
    64    60    61   1
    65    61    62  ar
    66    62    63  ar
    67    62    64  ar
    68    65    66   2
    69    65    67  am
    70     2    68   1
    71     7    69   1
    72     7    70   1
    73     9    71   1
    74    12    72   1
    75    13    73   1
    76    16    74   1
    77    17    75   1
    78    18    76   1
    79    19    77   1
    80    22    78   1
    81    22    79   1
    82    23    80   1
    83    23    81   1
    84    24    82   1
    85    24    83   1
    86    25    84   1
    87    25    85   1
    88    26    86   1
    89    26    87   1
    90    27    88   1
    91    28    89   1
    92    29    90   1
    93    32    91   1
    94    32    92   1
    95    33    93   1
    96    33    94   1
    97    34    95   1
    98    34    96   1
    99    35    97   1
   100    35    98   1
   101    36    99   1
   102    36   100   1
   103    36   101   1
   104    39   102   1
   105    39   103   1
   106    40   104   1
   107    40   105   1
   108    41   106   1
   109    41   107   1
   110    42   108   1
   111    42   109   1
   112    43   110   1
   113    43   111   1
   114    44   112   1
   115    45   113   1
   116    46   114   1
   117    47   115   1
   118    47   116   1
   119    48   117   1
   120    48   118   1
   121    49   119   1
   122    49   120   1
   123    50   121   1
   124    52   122   1
   125    52   123   1
   126    53   124   1
   127    53   125   1
   128    56   126   1
   129    57   127   1
   130    58   128   1
   131    58   129   1
   132    59   130   1
   133    59   131   1
   134    60   132   1
   135    60   133   1
   136    61   134   1
   137    63   135   1
   138    63   136   1
   139    64   137   1
   140    64   138   1
   141    67   139   1
   142    67   140   1
@<TRIPOS>SUBSTRUCTURE
     1  A02      2

