@<TRIPOS>MOLECULE
3ag9_ligand_002
   140   142
SMALL
GAST_HUCK
****
This file was generated by PARSER (from files_GN.cpp)

@<TRIPOS>ATOM
      1 N1          6.7384    8.7459   12.3005 N.ar        1 A02      -0.2698
      2 C2          7.3128    8.9256   13.5225 C.ar        1 A02       0.0533
      3 N3          7.7907    7.8579   14.2108 N.ar        1 A02      -0.2714
      4 C4          7.6992    6.6130   13.6794 C.ar        1 A02       0.1613
      5 C5          7.1297    6.4091   12.4255 C.ar        1 A02       0.1045
      6 C6          6.6239    7.5171   11.7290 C.ar        1 A02       0.1298
      7 N6          6.0348    7.3984   10.5281 N.pl3       1 A02      -0.3152
      8 N7          7.2037    5.0996   12.1397 N.2         1 A02      -0.2958
      9 C8          7.7992    4.5136   13.1961 C.2         1 A02       0.1123
     10 N9          8.0963    5.4195   14.1535 N.pl3       1 A02      -0.1918
     11 OAL        10.6735    2.1885   14.8476 O.2         1 A02      -0.3941
     12 OAN         9.2093    4.3548   18.3935 O.3         1 A02      -0.3840
     13 OAO         6.9221    4.4480   16.9512 O.3         1 A02      -0.3834
     14 OBV        10.0915    4.7843   15.2225 O.3         1 A02      -0.3181
     15 CCC        11.1885    2.8093   15.7722 C.2         1 A02       0.2080
     16 CCK         9.2384    3.6163   17.1677 C.3         1 A02       0.1295
     17 CCL         8.0856    4.0365   16.2404 C.3         1 A02       0.1408
     18 CCM        10.5031    3.9677   16.3292 C.3         1 A02       0.1788
     19 CCN         8.7270    5.1740   15.4212 C.3         1 A02       0.2035
     20 CBZ        14.5348    5.7098   12.4781 C.2         1 A02       0.1782
     21 OAI        15.1013    6.2787   13.4024 O.2         1 A02      -0.3969
     22 CBG        14.9684    4.3702   12.1187 C.3         1 A02       0.0374
     23 CAX        13.8301    3.3164   11.9860 C.3         1 A02      -0.0360
     24 CAU        13.1381    2.9229   13.3284 C.3         1 A02      -0.0492
     25 CAW        14.0537    2.1391   14.3199 C.3         1 A02      -0.0326
     26 CBD        13.2974    1.5671   15.5444 C.3         1 A02       0.0310
     27 NBR        12.4371    2.5416   16.1437 N.am        1 A02      -0.2847
     28 NBS        13.6346    6.3274   11.7237 N.am        1 A02      -0.2656
     29 CCI        13.3564    7.7380   11.6793 C.3         1 A02       0.1308
     30 CCB        13.7520    8.1981   10.3472 C.2         1 A02       0.2016
     31 OAK        13.2051    7.6877    9.3764 O.2         1 A02      -0.3945
     32 CBJ        11.8688    8.0435   12.0622 C.3         1 A02      -0.0122
     33 CAZ        10.7515    7.6101   11.0719 C.3         1 A02      -0.0440
     34 CAS        10.5938    8.5214    9.8118 C.3         1 A02      -0.0124
     35 CAR         9.1515    9.0454    9.5880 C.3         1 A02      -0.0354
     36 NAC         9.1477   10.2339    8.7204 N.4         1 A02       0.2185
     37 CCA        15.1240    4.4800    4.8979 C.2         1 A02       0.1782
     38 OAJ        15.4858    4.2325    3.7518 O.2         1 A02      -0.3969
     39 CBH        14.8308    5.8551    5.2434 C.3         1 A02       0.0374
     40 CAY        15.6915    6.3982    6.4126 C.3         1 A02      -0.0360
     41 CAT        15.2632    7.8183    6.8774 C.3         1 A02      -0.0492
     42 CAV        16.0251    8.3206    8.1416 C.3         1 A02      -0.0326
     43 CBC        15.3168    9.4689    8.9307 C.3         1 A02       0.0310
     44 NBQ        14.7717    9.0444   10.1886 N.am        1 A02      -0.2851
     45 NBT        14.9862    3.5173    5.8064 N.am        1 A02      -0.2656
     46 CCJ        15.2288    2.1054    5.6220 C.3         1 A02       0.1310
     47 CBK        14.0416    1.1786    6.0798 C.3         1 A02      -0.0092
     48 CBB        12.7307    1.8281    6.6259 C.3         1 A02      -0.0156
     49 CBF        12.6544    1.9447    8.1698 C.3         1 A02       0.0627
     50 NBP        11.3596    2.3089    8.5466 N.pl3       1 A02      -0.2723
     51 CBX        10.8908    3.4790    8.7811 C.cat       1 A02       0.2882
     52 NAB        11.5665    4.5645    8.6967 N.pl3       1 A02      -0.2849
     53 NAE         9.6609    3.5703    9.1099 N.pl3       1 A02      -0.2849
     54 CCD        16.5073    1.7745    6.2499 C.2         1 A02       0.2039
     55 OAM        17.4398    1.4470    5.5290 O.2         1 A02      -0.3944
     56 N          16.6545    1.8142    7.5715 N.am        1 A02      -0.2637
     57 CA         17.8372    1.4768    8.3278 C.3         1 A02       0.1307
     58 CB         17.5752    0.1152    9.0373 C.3         1 A02      -0.0092
     59 CG         18.5860   -0.3445   10.1299 C.3         1 A02      -0.0156
     60 CD         19.8477   -1.1068    9.6331 C.3         1 A02       0.0627
     61 NE         20.9447   -0.2804    9.3719 N.pl3       1 A02      -0.2723
     62 CZ         21.8659    0.0819   10.1925 C.cat       1 A02       0.2882
     63 NH1        21.9111   -0.2292   11.4328 N.pl3       1 A02      -0.2849
     64 NH2        22.8145    0.8039    9.7433 N.pl3       1 A02      -0.2849
     65 C          18.1012    2.5972    9.2136 C.2         1 A02       0.1992
     66 O          17.4858    2.7336   10.2613 O.2         1 A02      -0.3947
     67 NAF        18.8706    3.5993    8.8386 N.am        1 A02      -0.2990
     68 H1          7.3859    9.8611   13.9221 H           1 A02       0.0996
     69 H2          5.9298    6.5274   10.1116 H           1 A02       0.1820
     70 H3          5.7015    8.1893   10.0761 H           1 A02       0.1820
     71 H4          7.9898    3.5101   13.2477 H           1 A02       0.1349
     72 H5          9.3044    3.6759   19.1019 H           1 A02       0.2102
     73 H6          6.2642    4.6787   16.2605 H           1 A02       0.2101
     74 H7          9.1589    2.5436   17.4107 H           1 A02       0.0673
     75 H8          7.8178    3.1919   15.5981 H           1 A02       0.0678
     76 H9         11.1865    4.5643   16.9397 H           1 A02       0.0869
     77 H10         8.7224    6.0843   16.0316 H           1 A02       0.0998
     78 H11        15.7001    3.9905   12.8378 H           1 A02       0.0502
     79 H12        15.4744    4.4386   11.1534 H           1 A02       0.0502
     80 H13        14.2379    2.4112   11.5193 H           1 A02       0.0290
     81 H14        13.0605    3.7032   11.3075 H           1 A02       0.0290
     82 H15        12.2522    2.3034   13.1147 H           1 A02       0.0267
     83 H16        12.7845    3.8276   13.8158 H           1 A02       0.0267
     84 H17        14.8787    2.7928   14.6463 H           1 A02       0.0285
     85 H18        14.5126    1.2964   13.7820 H           1 A02       0.0285
     86 H19        14.0199    1.2456   16.2912 H           1 A02       0.0520
     87 H20        12.7388    0.6822   15.2208 H           1 A02       0.0520
     88 H21        12.8314    3.1214   16.8246 H           1 A02       0.1851
     89 H22        13.2003    5.7811   11.0378 H           1 A02       0.1883
     90 H23        13.9670    8.2661   12.4312 H           1 A02       0.0800
     91 H24        11.7739    9.1182   12.2485 H           1 A02       0.0312
     92 H25        11.6795    7.5483   13.0210 H           1 A02       0.0312
     93 H26         9.8059    7.5873   11.6315 H           1 A02       0.0269
     94 H27        10.9387    6.5785   10.7527 H           1 A02       0.0269
     95 H28        10.8705    7.9638    8.9176 H           1 A02       0.0317
     96 H29        11.2474    9.3843    9.8791 H           1 A02       0.0317
     97 H30         8.6958    9.3376   10.5423 H           1 A02       0.0813
     98 H31         8.5373    8.2712    9.1246 H           1 A02       0.0813
     99 H32         8.1894   10.4638    8.4368 H           1 A02       0.1994
    100 H33         9.7127   10.0597    7.8821 H           1 A02       0.1994
    101 H34         9.5427   11.0177    9.2504 H           1 A02       0.1994
    102 H35        13.7711    5.9263    5.5161 H           1 A02       0.0502
    103 H36        14.9845    6.5122    4.3773 H           1 A02       0.0502
    104 H37        16.7512    6.4278    6.1203 H           1 A02       0.0290
    105 H38        15.5958    5.7098    7.2645 H           1 A02       0.0290
    106 H39        14.1847    7.8126    7.0625 H           1 A02       0.0267
    107 H40        15.4415    8.5278    6.0565 H           1 A02       0.0267
    108 H41        17.0124    8.6641    7.8180 H           1 A02       0.0285
    109 H42        16.2039    7.4842    8.8275 H           1 A02       0.0285
    110 H43        14.5345    9.9454    8.3385 H           1 A02       0.0520
    111 H44        16.0495   10.2381    9.1715 H           1 A02       0.0520
    112 H45        15.1971    9.3786   10.9943 H           1 A02       0.1851
    113 H46        14.7071    3.7909    6.6882 H           1 A02       0.1883
    114 H47        15.3448    1.9144    4.5452 H           1 A02       0.0800
    115 H48        14.3863    0.4397    6.8128 H           1 A02       0.0313
    116 H49        13.7457    0.5904    5.2017 H           1 A02       0.0313
    117 H50        11.8885    1.2078    6.2944 H           1 A02       0.0301
    118 H51        12.5986    2.8155    6.1719 H           1 A02       0.0301
    119 H52        13.4138    2.6418    8.5333 H           1 A02       0.0689
    120 H53        12.8598    0.9711    8.6145 H           1 A02       0.0689
    121 H54        10.7514    1.6009    8.6222 H           1 A02       0.2642
    122 H55        11.1494    5.3834    8.8801 H           1 A02       0.2615
    123 H56        12.4658    4.5417    8.4568 H           1 A02       0.2615
    124 H57         9.1295    2.8015    9.1812 H           1 A02       0.2615
    125 H58         9.2814    4.4081    9.2884 H           1 A02       0.2615
    126 H59        15.8738    2.0629    8.0840 H           1 A02       0.1883
    127 H60        18.7052    1.3442    7.6816 H           1 A02       0.0800
    128 H61        17.5312   -0.6626    8.2680 H           1 A02       0.0313
    129 H62        16.5841    0.1536    9.4912 H           1 A02       0.0313
    130 H63        18.0420   -1.0219   10.7949 H           1 A02       0.0301
    131 H64        18.8860    0.5142   10.7381 H           1 A02       0.0301
    132 H65        19.6040   -1.6473    8.7157 H           1 A02       0.0689
    133 H66        20.1245   -1.8757   10.3621 H           1 A02       0.0689
    134 H67        21.0464    0.0050    8.4869 H           1 A02       0.2642
    135 H68        22.6286    0.0659   11.9575 H           1 A02       0.2615
    136 H69        21.2163   -0.7076   11.8325 H           1 A02       0.2615
    137 H70        22.8308    1.0603    8.8439 H           1 A02       0.2615
    138 H71        23.4949    1.0893   10.3207 H           1 A02       0.2615
    139 H72        18.9520    4.3756    9.4125 H           1 A02       0.1815
    140 H73        19.3315    3.5717    7.9832 H           1 A02       0.1815
@<TRIPOS>BOND
     1     2     1  ar
     2     6     1  ar
     3     3     2  ar
     4     4     3  ar
     5     4     5  ar
     6    10     4   1
     7     5     6  ar
     8     8     5   1
     9     6     7   1
    10     9     8   2
    11    10     9   1
    12    19    10   1
    13    15    11   2
    14    16    12   1
    15    17    13   1
    16    18    14   1
    17    14    19   1
    18    15    18   1
    19    27    15  am
    20    16    17   1
    21    18    16   1
    22    17    19   1
    23    20    21   2
    24    20    22   1
    25    28    20  am
    26    22    23   1
    27    23    24   1
    28    24    25   1
    29    25    26   1
    30    26    27   1
    31    29    28   1
    32    30    29   1
    33    29    32   1
    34    30    31   2
    35    44    30  am
    36    32    33   1
    37    33    34   1
    38    34    35   1
    39    35    36   1
    40    37    38   2
    41    39    37   1
    42    37    45  am
    43    40    39   1
    44    41    40   1
    45    42    41   1
    46    43    42   1
    47    43    44   1
    48    45    46   1
    49    46    47   1
    50    46    54   1
    51    47    48   1
    52    48    49   1
    53    49    50   1
    54    50    51  ar
    55    51    52  ar
    56    51    53  ar
    57    54    55   2
    58    54    56  am
    59    56    57   1
    60    57    58   1
    61    57    65   1
    62    58    59   1
    63    59    60   1
    64    60    61   1
    65    61    62  ar
    66    62    63  ar
    67    62    64  ar
    68    65    66   2
    69    65    67  am
    70     2    68   1
    71     7    69   1
    72     7    70   1
    73     9    71   1
    74    12    72   1
    75    13    73   1
    76    16    74   1
    77    17    75   1
    78    18    76   1
    79    19    77   1
    80    22    78   1
    81    22    79   1
    82    23    80   1
    83    23    81   1
    84    24    82   1
    85    24    83   1
    86    25    84   1
    87    25    85   1
    88    26    86   1
    89    26    87   1
    90    27    88   1
    91    28    89   1
    92    29    90   1
    93    32    91   1
    94    32    92   1
    95    33    93   1
    96    33    94   1
    97    34    95   1
    98    34    96   1
    99    35    97   1
   100    35    98   1
   101    36    99   1
   102    36   100   1
   103    36   101   1
   104    39   102   1
   105    39   103   1
   106    40   104   1
   107    40   105   1
   108    41   106   1
   109    41   107   1
   110    42   108   1
   111    42   109   1
   112    43   110   1
   113    43   111   1
   114    44   112   1
   115    45   113   1
   116    46   114   1
   117    47   115   1
   118    47   116   1
   119    48   117   1
   120    48   118   1
   121    49   119   1
   122    49   120   1
   123    50   121   1
   124    52   122   1
   125    52   123   1
   126    53   124   1
   127    53   125   1
   128    56   126   1
   129    57   127   1
   130    58   128   1
   131    58   129   1
   132    59   130   1
   133    59   131   1
   134    60   132   1
   135    60   133   1
   136    61   134   1
   137    63   135   1
   138    63   136   1
   139    64   137   1
   140    64   138   1
   141    67   139   1
   142    67   140   1
@<TRIPOS>SUBSTRUCTURE
     1  A02      2

