@<TRIPOS>MOLECULE
3ag9_ligand_073
   140   142
SMALL
GAST_HUCK
****
This file was generated by PARSER (from files_GN.cpp)

@<TRIPOS>ATOM
      1 N1         16.4878   25.3524    5.3127 N.ar        1 A02      -0.2698
      2 C2         17.6125   24.6924    5.7119 C.ar        1 A02       0.0533
      3 N3         17.6902   23.3397    5.6026 N.ar        1 A02      -0.2714
      4 C4         16.6409   22.6396    5.0974 C.ar        1 A02       0.1613
      5 C5         15.4832   23.2942    4.6825 C.ar        1 A02       0.1045
      6 C6         15.4136   24.6939    4.7964 C.ar        1 A02       0.1298
      7 N6         14.3285   25.3842    4.4092 N.pl3       1 A02      -0.3152
      8 N7         14.6180   22.3814    4.2238 N.2         1 A02      -0.2958
      9 C8         15.2292   21.1861    4.3497 C.2         1 A02       0.1123
     10 N9         16.4627   21.3213    4.8829 N.pl3       1 A02      -0.1918
     11 OAL        14.7282   17.8585    4.2735 O.2         1 A02      -0.3941
     12 OAN        16.8592   18.0667    8.0391 O.3         1 A02      -0.3840
     13 OAO        18.8709   19.5946    7.0264 O.3         1 A02      -0.3834
     14 OBV        17.0819   19.0232    4.5622 O.3         1 A02      -0.3181
     15 CCC        15.4371   17.3700    5.1497 C.2         1 A02       0.2080
     16 CCK        16.5388   18.8527    6.8893 C.3         1 A02       0.1295
     17 CCL        17.5403   20.0003    6.6913 C.3         1 A02       0.1408
     18 CCM        16.6487   18.0707    5.5569 C.3         1 A02       0.1788
     19 CCN        17.4205   20.2809    5.1764 C.3         1 A02       0.2035
     20 CBZ        10.0630   10.9331    7.2086 C.2         1 A02       0.1782
     21 OAI        10.1092   10.2703    6.1804 O.2         1 A02      -0.3969
     22 CBG        10.1573   12.3822    7.0907 C.3         1 A02       0.0374
     23 CAX        11.5743   12.9560    7.4043 C.3         1 A02      -0.0360
     24 CAU        11.9701   14.0979    6.4246 C.3         1 A02      -0.0492
     25 CAW        13.3882   14.6922    6.6535 C.3         1 A02      -0.0326
     26 CBD        13.9149   15.4662    5.4138 C.3         1 A02       0.0310
     27 NBR        15.1105   16.2022    5.6938 N.am        1 A02      -0.2847
     28 NBS         9.9443   10.3607    8.3975 N.am        1 A02      -0.2656
     29 CCI         9.8553    8.9454    8.6572 C.3         1 A02       0.1308
     30 CCB        11.1816    8.4411    8.9728 C.2         1 A02       0.2016
     31 OAK        11.5953    7.4824    8.3312 O.2         1 A02      -0.3945
     32 CBJ         8.8024    8.6200    9.7614 C.3         1 A02      -0.0122
     33 CAZ         8.3936    7.1161    9.7559 C.3         1 A02      -0.0440
     34 CAS         7.5823    6.6313   10.9854 C.3         1 A02      -0.0124
     35 CAR         6.1861    7.2951   11.1320 C.3         1 A02      -0.0354
     36 NAC         5.1361    6.2960   11.3665 N.4         1 A02       0.2185
     37 CCA        14.8010    4.1751    8.8370 C.2         1 A02       0.1782
     38 OAJ        15.9962    3.9323    8.6950 O.2         1 A02      -0.3969
     39 CBH        14.2297    4.0127   10.1612 C.3         1 A02       0.0374
     40 CAY        14.7567    5.0144   11.2365 C.3         1 A02      -0.0360
     41 CAT        14.7255    6.5218   10.8463 C.3         1 A02      -0.0492
     42 CAV        13.3304    7.1933   10.9666 C.3         1 A02      -0.0326
     43 CBC        13.2612    8.5878   10.2753 C.3         1 A02       0.0310
     44 NBQ        11.9300    8.9900    9.9276 N.am        1 A02      -0.2851
     45 NBT        14.0493    4.5165    7.7869 N.am        1 A02      -0.2656
     46 CCJ        14.5338    4.8371    6.4709 C.3         1 A02       0.1310
     47 CBK        13.3856    4.8588    5.4105 C.3         1 A02      -0.0092
     48 CBB        12.4232    6.0828    5.5070 C.3         1 A02      -0.0156
     49 CBF        12.1838    6.8245    4.1604 C.3         1 A02       0.0627
     50 NBP        13.2804    7.6015    3.7592 N.pl3       1 A02      -0.2723
     51 CBX        13.6815    8.7115    4.2575 C.cat       1 A02       0.2882
     52 NAB        13.0967    9.3388    5.2111 N.pl3       1 A02      -0.2849
     53 NAE        14.7336    9.2379    3.7736 N.pl3       1 A02      -0.2849
     54 CCD        15.5980    3.9428    6.0095 C.2         1 A02       0.2039
     55 OAM        15.3389    2.7614    5.8204 O.2         1 A02      -0.3944
     56 N          16.8060    4.4435    5.7994 N.am        1 A02      -0.2637
     57 CA         17.9712    3.7664    5.2997 C.3         1 A02       0.1307
     58 CB         18.9878    3.5452    6.4635 C.3         1 A02      -0.0092
     59 CG         19.3881    4.8157    7.2653 C.3         1 A02      -0.0156
     60 CD         20.5564    4.5800    8.2581 C.3         1 A02       0.0627
     61 NE         20.1991    3.7471    9.3240 N.pl3       1 A02      -0.2723
     62 CZ         20.3763    2.4823    9.4438 C.cat       1 A02       0.2882
     63 NH1        20.8878    1.7165    8.5564 N.pl3       1 A02      -0.2849
     64 NH2        20.0022    1.9486   10.5376 N.pl3       1 A02      -0.2849
     65 C          18.5613    4.4839    4.1738 C.2         1 A02       0.1992
     66 O          18.3969    5.6840    4.0075 O.2         1 A02      -0.3947
     67 NAF        19.3009    3.8586    3.2861 N.am        1 A02      -0.2990
     68 H1         18.4015   25.2208    6.0870 H           1 A02       0.0996
     69 H2         13.5623   24.9191    4.0378 H           1 A02       0.1820
     70 H3         14.3101   26.3510    4.4941 H           1 A02       0.1820
     71 H4         14.7912   20.3065    4.0799 H           1 A02       0.1349
     72 H5         16.4531   17.1862    7.8969 H           1 A02       0.2102
     73 H6         19.4213   20.3985    6.9120 H           1 A02       0.2101
     74 H7         15.5322   19.2679    7.0090 H           1 A02       0.0673
     75 H8         17.2729   20.8669    7.3036 H           1 A02       0.0678
     76 H9         17.4487   17.3293    5.6508 H           1 A02       0.0869
     77 H10        18.3883   20.5828    4.7657 H           1 A02       0.0998
     78 H11         9.4276   12.8423    7.7595 H           1 A02       0.0502
     79 H12         9.8670   12.6675    6.0744 H           1 A02       0.0502
     80 H13        12.3310   12.1680    7.3288 H           1 A02       0.0290
     81 H14        11.5865   13.3314    8.4320 H           1 A02       0.0290
     82 H15        11.2362   14.9047    6.5102 H           1 A02       0.0267
     83 H16        11.9160   13.6996    5.4058 H           1 A02       0.0267
     84 H17        14.0869   13.8826    6.8845 H           1 A02       0.0285
     85 H18        13.3467   15.3679    7.5131 H           1 A02       0.0285
     86 H19        13.1490   16.1688    5.0755 H           1 A02       0.0520
     87 H20        14.1117   14.7541    4.6079 H           1 A02       0.0520
     88 H21        15.7119   15.8302    6.3540 H           1 A02       0.1851
     89 H22         9.9247   10.9455    9.1706 H           1 A02       0.1883
     90 H23         9.4940    8.4450    7.7488 H           1 A02       0.0800
     91 H24         7.9161    9.2330    9.5820 H           1 A02       0.0312
     92 H25         9.1938    8.8825   10.7467 H           1 A02       0.0312
     93 H26         9.3021    6.5116    9.6988 H           1 A02       0.0269
     94 H27         7.8018    6.8989    8.8610 H           1 A02       0.0269
     95 H28         8.1621    6.8039   11.8966 H           1 A02       0.0317
     96 H29         7.4504    5.5492   10.8799 H           1 A02       0.0317
     97 H30         5.9197    7.8408   10.2240 H           1 A02       0.0813
     98 H31         6.1973    7.9965   11.9702 H           1 A02       0.0813
     99 H32         4.2494    6.7704   11.5540 H           1 A02       0.1994
    100 H33         5.3854    5.7060   12.1645 H           1 A02       0.1994
    101 H34         5.0453    5.7236   10.5229 H           1 A02       0.1994
    102 H35        14.4626    2.9974   10.4969 H           1 A02       0.0502
    103 H36        13.1411    4.0888   10.1135 H           1 A02       0.0502
    104 H37        15.7928    4.7485   11.4662 H           1 A02       0.0290
    105 H38        14.1846    4.8717   12.1571 H           1 A02       0.0290
    106 H39        15.1003    6.6231    9.8261 H           1 A02       0.0267
    107 H40        15.4213    7.0621   11.4931 H           1 A02       0.0267
    108 H41        13.0792    7.3136   12.0242 H           1 A02       0.0285
    109 H42        12.5795    6.5376   10.5298 H           1 A02       0.0285
    110 H43        13.8683    8.6003    9.3657 H           1 A02       0.0520
    111 H44        13.6760    9.3358   10.9545 H           1 A02       0.0520
    112 H45        11.5653    9.7655   10.3872 H           1 A02       0.1851
    113 H46        13.0904    4.5939    7.9403 H           1 A02       0.1883
    114 H47        14.9256    5.8600    6.5301 H           1 A02       0.0800
    115 H48        12.7978    3.9413    5.4987 H           1 A02       0.0313
    116 H49        13.8395    4.8504    4.4130 H           1 A02       0.0313
    117 H50        12.8190    6.8049    6.2214 H           1 A02       0.0301
    118 H51        11.4580    5.7477    5.8954 H           1 A02       0.0301
    119 H52        11.2934    7.4561    4.2350 H           1 A02       0.0689
    120 H53        11.9907    6.0832    3.3821 H           1 A02       0.0689
    121 H54        13.7848    7.2668    3.0421 H           1 A02       0.2642
    122 H55        13.4517   10.1437    5.5254 H           1 A02       0.2615
    123 H56        12.3134    8.9994    5.5894 H           1 A02       0.2615
    124 H57        15.1917    8.8163    3.0742 H           1 A02       0.2615
    125 H58        15.0548   10.0493    4.1155 H           1 A02       0.2615
    126 H59        16.9250    5.3820    6.0159 H           1 A02       0.1883
    127 H60        17.6838    2.7775    4.9294 H           1 A02       0.0800
    128 H61        19.8911    3.0891    6.0504 H           1 A02       0.0313
    129 H62        18.5524    2.8196    7.1571 H           1 A02       0.0313
    130 H63        18.5211    5.1942    7.8153 H           1 A02       0.0301
    131 H64        19.7000    5.5936    6.5651 H           1 A02       0.0301
    132 H65        20.8422    5.5418    8.6866 H           1 A02       0.0689
    133 H66        21.4290    4.2138    7.7113 H           1 A02       0.0689
    134 H67        19.7843    4.1663   10.0537 H           1 A02       0.2642
    135 H68        20.9792    0.8012    8.7256 H           1 A02       0.2615
    136 H69        21.1682    2.0604    7.7357 H           1 A02       0.2615
    137 H70        19.6448    2.4863   11.2105 H           1 A02       0.2615
    138 H71        20.1055    1.0317   10.6906 H           1 A02       0.2615
    139 H72        19.6832    4.3449    2.5397 H           1 A02       0.1815
    140 H73        19.4507    2.9045    3.3572 H           1 A02       0.1815
@<TRIPOS>BOND
     1     2     1  ar
     2     6     1  ar
     3     3     2  ar
     4     4     3  ar
     5     4     5  ar
     6    10     4   1
     7     5     6  ar
     8     8     5   1
     9     6     7   1
    10     9     8   2
    11    10     9   1
    12    19    10   1
    13    15    11   2
    14    16    12   1
    15    17    13   1
    16    18    14   1
    17    14    19   1
    18    15    18   1
    19    27    15  am
    20    16    17   1
    21    18    16   1
    22    17    19   1
    23    20    21   2
    24    20    22   1
    25    28    20  am
    26    22    23   1
    27    23    24   1
    28    24    25   1
    29    25    26   1
    30    26    27   1
    31    29    28   1
    32    30    29   1
    33    29    32   1
    34    30    31   2
    35    44    30  am
    36    32    33   1
    37    33    34   1
    38    34    35   1
    39    35    36   1
    40    37    38   2
    41    39    37   1
    42    37    45  am
    43    40    39   1
    44    41    40   1
    45    42    41   1
    46    43    42   1
    47    43    44   1
    48    45    46   1
    49    46    47   1
    50    46    54   1
    51    47    48   1
    52    48    49   1
    53    49    50   1
    54    50    51  ar
    55    51    52  ar
    56    51    53  ar
    57    54    55   2
    58    54    56  am
    59    56    57   1
    60    57    58   1
    61    57    65   1
    62    58    59   1
    63    59    60   1
    64    60    61   1
    65    61    62  ar
    66    62    63  ar
    67    62    64  ar
    68    65    66   2
    69    65    67  am
    70     2    68   1
    71     7    69   1
    72     7    70   1
    73     9    71   1
    74    12    72   1
    75    13    73   1
    76    16    74   1
    77    17    75   1
    78    18    76   1
    79    19    77   1
    80    22    78   1
    81    22    79   1
    82    23    80   1
    83    23    81   1
    84    24    82   1
    85    24    83   1
    86    25    84   1
    87    25    85   1
    88    26    86   1
    89    26    87   1
    90    27    88   1
    91    28    89   1
    92    29    90   1
    93    32    91   1
    94    32    92   1
    95    33    93   1
    96    33    94   1
    97    34    95   1
    98    34    96   1
    99    35    97   1
   100    35    98   1
   101    36    99   1
   102    36   100   1
   103    36   101   1
   104    39   102   1
   105    39   103   1
   106    40   104   1
   107    40   105   1
   108    41   106   1
   109    41   107   1
   110    42   108   1
   111    42   109   1
   112    43   110   1
   113    43   111   1
   114    44   112   1
   115    45   113   1
   116    46   114   1
   117    47   115   1
   118    47   116   1
   119    48   117   1
   120    48   118   1
   121    49   119   1
   122    49   120   1
   123    50   121   1
   124    52   122   1
   125    52   123   1
   126    53   124   1
   127    53   125   1
   128    56   126   1
   129    57   127   1
   130    58   128   1
   131    58   129   1
   132    59   130   1
   133    59   131   1
   134    60   132   1
   135    60   133   1
   136    61   134   1
   137    63   135   1
   138    63   136   1
   139    64   137   1
   140    64   138   1
   141    67   139   1
   142    67   140   1
@<TRIPOS>SUBSTRUCTURE
     1  A02      2

