@<TRIPOS>MOLECULE
3ag9_ligand_017
   140   142
SMALL
GAST_HUCK
****
This file was generated by PARSER (from files_GN.cpp)

@<TRIPOS>ATOM
      1 N1          0.6416    6.2787   13.2162 N.ar        1 A02      -0.2698
      2 C2          1.7130    5.7054   12.5956 C.ar        1 A02       0.0533
      3 N3          2.9739    5.9531   13.0339 N.ar        1 A02      -0.2714
      4 C4          3.1774    6.8037   14.0749 C.ar        1 A02       0.1613
      5 C5          2.0982    7.4193   14.7121 C.ar        1 A02       0.1045
      6 C6          0.8007    7.1491   14.2526 C.ar        1 A02       0.1298
      7 N6         -0.2796    7.7036   14.8331 N.pl3       1 A02      -0.3152
      8 N7          2.5762    8.1973   15.6946 N.2         1 A02      -0.2958
      9 C8          3.9115    8.0386   15.6841 C.2         1 A02       0.1123
     10 N9          4.2964    7.1798   14.7123 N.pl3       1 A02      -0.1918
     11 OAL         7.5290    6.2228   10.3812 O.2         1 A02      -0.3941
     12 OAN         7.4675    4.1506   12.6948 O.3         1 A02      -0.3840
     13 OAO         6.6720    4.7018   15.2592 O.3         1 A02      -0.3834
     14 OBV         6.0937    7.4467   13.2346 O.3         1 A02      -0.3181
     15 CCC         7.3150    7.0385   11.2716 C.2         1 A02       0.2080
     16 CCK         6.4908    5.1840   12.8385 C.3         1 A02       0.1295
     17 CCL         5.8490    5.2672   14.2359 C.3         1 A02       0.1408
     18 CCM         7.0777    6.5982   12.6349 C.3         1 A02       0.1788
     19 CCN         5.6506    6.7949   14.4346 C.3         1 A02       0.2035
     20 CBZ        11.6029    9.5799    7.8032 C.2         1 A02       0.1782
     21 OAI        11.6386    8.3537    7.7963 O.2         1 A02      -0.3969
     22 CBG        10.7251   10.2633    6.8684 C.3         1 A02       0.0374
     23 CAX         9.2077   10.0272    7.0826 C.3         1 A02      -0.0360
     24 CAU         8.5711   10.7797    8.2870 C.3         1 A02      -0.0492
     25 CAW         8.5181   10.0274    9.6461 C.3         1 A02      -0.0326
     26 CBD         7.4357    8.9178    9.7114 C.3         1 A02       0.0310
     27 NBR         7.3197    8.3406   11.0134 N.am        1 A02      -0.2847
     28 NBS        12.4554   10.2884    8.5280 N.am        1 A02      -0.2656
     29 CCI        13.5904    9.8289    9.2900 C.3         1 A02       0.1308
     30 CCB        13.2897    8.8533   10.3362 C.2         1 A02       0.2016
     31 OAK        12.1989    8.2880   10.3587 O.2         1 A02      -0.3945
     32 CBJ        14.7815    9.3763    8.3772 C.3         1 A02      -0.0122
     33 CAZ        15.0303   10.1714    7.0662 C.3         1 A02      -0.0440
     34 CAS        15.2182   11.7113    7.2404 C.3         1 A02      -0.0124
     35 CAR        15.7677   12.3845    5.9613 C.3         1 A02      -0.0354
     36 NAC        15.1464   13.7005    5.7370 N.4         1 A02       0.2185
     37 CCA        13.6100    2.3714   10.1282 C.2         1 A02       0.1782
     38 OAJ        13.4673    1.1577   10.0020 O.2         1 A02      -0.3969
     39 CBH        13.3423    2.9746   11.4191 C.3         1 A02       0.0374
     40 CAY        14.4334    3.9604   11.9131 C.3         1 A02      -0.0360
     41 CAT        14.3065    5.4355   11.4064 C.3         1 A02      -0.0492
     42 CAV        14.8418    6.4921   12.4085 C.3         1 A02      -0.0326
     43 CBC        14.0108    7.8056   12.4607 C.3         1 A02       0.0310
     44 NBQ        14.1814    8.6052   11.2919 N.am        1 A02      -0.2851
     45 NBT        13.8276    3.1345    9.0698 N.am        1 A02      -0.2656
     46 CCJ        14.0452    2.7710    7.6936 C.3         1 A02       0.1310
     47 CBK        13.1197    1.6362    7.1326 C.3         1 A02      -0.0092
     48 CBB        11.6375    1.5654    7.6005 C.3         1 A02      -0.0156
     49 CBF        10.9622    2.8596    8.1301 C.3         1 A02       0.0627
     50 NBP        10.7218    3.7948    7.1218 N.pl3       1 A02      -0.2723
     51 CBX        10.1168    4.9190    7.2586 C.cat       1 A02       0.2882
     52 NAB         9.6453    5.3696    8.3597 N.pl3       1 A02      -0.2849
     53 NAE         9.9635    5.6536    6.2231 N.pl3       1 A02      -0.2849
     54 CCD        15.4673    2.5328    7.4468 C.2         1 A02       0.2039
     55 OAM        16.0711    3.1796    6.5919 O.2         1 A02      -0.3944
     56 N          16.1171    1.6505    8.2014 N.am        1 A02      -0.2637
     57 CA         17.5324    1.4932    8.3897 C.3         1 A02       0.1307
     58 CB         17.7517    0.1018    9.0719 C.3         1 A02      -0.0092
     59 CG         18.8985   -0.0630   10.1054 C.3         1 A02      -0.0156
     60 CD         20.2719   -0.4551    9.5118 C.3         1 A02       0.0627
     61 NE         21.1105    0.6512    9.3238 N.pl3       1 A02      -0.2723
     62 CZ         22.0621    0.7366    8.4730 C.cat       1 A02       0.2882
     63 NH1        22.3055   -0.1481    7.5751 N.pl3       1 A02      -0.2849
     64 NH2        22.8184    1.7712    8.4741 N.pl3       1 A02      -0.2849
     65 C          18.0295    2.6085    9.1831 C.2         1 A02       0.1992
     66 O          17.6481    2.7695   10.3325 O.2         1 A02      -0.3947
     67 NAF        18.7533    3.5797    8.6633 N.am        1 A02      -0.2990
     68 H1          1.5633    5.0659   11.8138 H           1 A02       0.0996
     69 H2         -0.1692    8.3106   15.5825 H           1 A02       0.1820
     70 H3         -1.1693    7.4955   14.5062 H           1 A02       0.1820
     71 H4          4.5457    8.4992   16.3362 H           1 A02       0.1349
     72 H5          8.1832    4.3777   13.3250 H           1 A02       0.2102
     73 H6          7.4949    5.2341   15.2624 H           1 A02       0.2101
     74 H7          5.6969    5.0040   12.1078 H           1 A02       0.0673
     75 H8          4.8988    4.7215   14.2397 H           1 A02       0.0678
     76 H9          8.0192    6.6809   13.1909 H           1 A02       0.0869
     77 H10         6.3102    7.1397   15.2396 H           1 A02       0.0998
     78 H11        10.9923    9.9230    5.8632 H           1 A02       0.0502
     79 H12        10.9150   11.3397    6.8823 H           1 A02       0.0502
     80 H13         9.0037    8.9594    7.1376 H           1 A02       0.0290
     81 H14         8.7130   10.3891    6.1793 H           1 A02       0.0290
     82 H15         7.5423   11.0354    8.0191 H           1 A02       0.0267
     83 H16         9.0967   11.7266    8.4341 H           1 A02       0.0267
     84 H17         8.3083   10.7691   10.4253 H           1 A02       0.0285
     85 H18         9.4932    9.5876    9.8678 H           1 A02       0.0285
     86 H19         7.7015    8.1322    9.0048 H           1 A02       0.0520
     87 H20         6.4610    9.3238    9.4293 H           1 A02       0.0520
     88 H21         7.2034    8.9462   11.7643 H           1 A02       0.1851
     89 H22        12.3586   11.2530    8.4848 H           1 A02       0.1883
     90 H23        13.9387   10.7207    9.8182 H           1 A02       0.0800
     91 H24        14.6329    8.3316    8.0867 H           1 A02       0.0312
     92 H25        15.7082    9.4145    8.9602 H           1 A02       0.0312
     93 H26        14.1962   10.0032    6.3802 H           1 A02       0.0269
     94 H27        15.9288    9.7674    6.5873 H           1 A02       0.0269
     95 H28        15.9099   11.9109    8.0661 H           1 A02       0.0317
     96 H29        14.2540   12.1691    7.4811 H           1 A02       0.0317
     97 H30        15.5598   11.7628    5.0847 H           1 A02       0.0813
     98 H31        16.8501   12.5211    6.0471 H           1 A02       0.0813
     99 H32        15.5920   14.1605    4.9382 H           1 A02       0.1994
    100 H33        15.2536   14.2869    6.5694 H           1 A02       0.1994
    101 H34        14.1482   13.5777    5.5432 H           1 A02       0.1994
    102 H35        13.2375    2.1898   12.1749 H           1 A02       0.0502
    103 H36        12.3766    3.4831   11.3793 H           1 A02       0.0502
    104 H37        15.4314    3.5742   11.6617 H           1 A02       0.0290
    105 H38        14.3663    3.9770   13.0050 H           1 A02       0.0290
    106 H39        13.2481    5.6239   11.1887 H           1 A02       0.0267
    107 H40        14.8541    5.5370   10.4636 H           1 A02       0.0267
    108 H41        15.8815    6.7380   12.1619 H           1 A02       0.0285
    109 H42        14.8430    6.0818   13.4201 H           1 A02       0.0285
    110 H43        14.3556    8.4123   13.2966 H           1 A02       0.0520
    111 H44        12.9588    7.5638   12.6531 H           1 A02       0.0520
    112 H45        15.0351    9.0679   11.2279 H           1 A02       0.1851
    113 H46        13.7986    4.0853    9.2387 H           1 A02       0.1883
    114 H47        13.7642    3.6795    7.1457 H           1 A02       0.0800
    115 H48        13.5634    0.6571    7.3492 H           1 A02       0.0313
    116 H49        13.1239    1.7230    6.0452 H           1 A02       0.0313
    117 H50        11.5676    0.8207    8.3938 H           1 A02       0.0301
    118 H51        11.0361    1.1940    6.7681 H           1 A02       0.0301
    119 H52        11.5970    3.2981    8.9107 H           1 A02       0.0689
    120 H53        10.0052    2.5811    8.5851 H           1 A02       0.0689
    121 H54        11.0326    3.5924    6.2649 H           1 A02       0.2642
    122 H55         9.2069    6.1902    8.3647 H           1 A02       0.2615
    123 H56         9.7160    4.8763    9.1469 H           1 A02       0.2615
    124 H57        10.2543    5.3459    5.3941 H           1 A02       0.2615
    125 H58         9.5232    6.4746    6.2857 H           1 A02       0.2615
    126 H59        15.5592    1.1218    8.7925 H           1 A02       0.1883
    127 H60        18.0226    1.4730    7.4109 H           1 A02       0.0800
    128 H61        17.8859   -0.6415    8.2821 H           1 A02       0.0313
    129 H62        16.8326   -0.1798    9.5991 H           1 A02       0.0313
    130 H63        18.5905   -0.8645   10.7882 H           1 A02       0.0301
    131 H64        18.9919    0.8476   10.7087 H           1 A02       0.0301
    132 H65        20.1142   -1.0080    8.5816 H           1 A02       0.0689
    133 H66        20.7680   -1.1273   10.2171 H           1 A02       0.0689
    134 H67        21.0043    1.3747    9.9072 H           1 A02       0.2642
    135 H68        23.0130   -0.0186    6.9862 H           1 A02       0.2615
    136 H69        21.7880   -0.9204    7.5169 H           1 A02       0.2615
    137 H70        22.6767    2.4573    9.0915 H           1 A02       0.2615
    138 H71        23.5070    1.8379    7.8452 H           1 A02       0.2615
    139 H72        18.9450    4.3556    9.2069 H           1 A02       0.1815
    140 H73        19.0385    3.5393    7.7389 H           1 A02       0.1815
@<TRIPOS>BOND
     1     2     1  ar
     2     6     1  ar
     3     3     2  ar
     4     4     3  ar
     5     4     5  ar
     6    10     4   1
     7     5     6  ar
     8     8     5   1
     9     6     7   1
    10     9     8   2
    11    10     9   1
    12    19    10   1
    13    15    11   2
    14    16    12   1
    15    17    13   1
    16    18    14   1
    17    14    19   1
    18    15    18   1
    19    27    15  am
    20    16    17   1
    21    18    16   1
    22    17    19   1
    23    20    21   2
    24    20    22   1
    25    28    20  am
    26    22    23   1
    27    23    24   1
    28    24    25   1
    29    25    26   1
    30    26    27   1
    31    29    28   1
    32    30    29   1
    33    29    32   1
    34    30    31   2
    35    44    30  am
    36    32    33   1
    37    33    34   1
    38    34    35   1
    39    35    36   1
    40    37    38   2
    41    39    37   1
    42    37    45  am
    43    40    39   1
    44    41    40   1
    45    42    41   1
    46    43    42   1
    47    43    44   1
    48    45    46   1
    49    46    47   1
    50    46    54   1
    51    47    48   1
    52    48    49   1
    53    49    50   1
    54    50    51  ar
    55    51    52  ar
    56    51    53  ar
    57    54    55   2
    58    54    56  am
    59    56    57   1
    60    57    58   1
    61    57    65   1
    62    58    59   1
    63    59    60   1
    64    60    61   1
    65    61    62  ar
    66    62    63  ar
    67    62    64  ar
    68    65    66   2
    69    65    67  am
    70     2    68   1
    71     7    69   1
    72     7    70   1
    73     9    71   1
    74    12    72   1
    75    13    73   1
    76    16    74   1
    77    17    75   1
    78    18    76   1
    79    19    77   1
    80    22    78   1
    81    22    79   1
    82    23    80   1
    83    23    81   1
    84    24    82   1
    85    24    83   1
    86    25    84   1
    87    25    85   1
    88    26    86   1
    89    26    87   1
    90    27    88   1
    91    28    89   1
    92    29    90   1
    93    32    91   1
    94    32    92   1
    95    33    93   1
    96    33    94   1
    97    34    95   1
    98    34    96   1
    99    35    97   1
   100    35    98   1
   101    36    99   1
   102    36   100   1
   103    36   101   1
   104    39   102   1
   105    39   103   1
   106    40   104   1
   107    40   105   1
   108    41   106   1
   109    41   107   1
   110    42   108   1
   111    42   109   1
   112    43   110   1
   113    43   111   1
   114    44   112   1
   115    45   113   1
   116    46   114   1
   117    47   115   1
   118    47   116   1
   119    48   117   1
   120    48   118   1
   121    49   119   1
   122    49   120   1
   123    50   121   1
   124    52   122   1
   125    52   123   1
   126    53   124   1
   127    53   125   1
   128    56   126   1
   129    57   127   1
   130    58   128   1
   131    58   129   1
   132    59   130   1
   133    59   131   1
   134    60   132   1
   135    60   133   1
   136    61   134   1
   137    63   135   1
   138    63   136   1
   139    64   137   1
   140    64   138   1
   141    67   139   1
   142    67   140   1
@<TRIPOS>SUBSTRUCTURE
     1  A02      2

