@<TRIPOS>MOLECULE
3ag9_ligand_077
   140   142
SMALL
GAST_HUCK
****
This file was generated by PARSER (from files_GN.cpp)

@<TRIPOS>ATOM
      1 N1         10.3289    3.0611   14.3504 N.ar        1 A02      -0.2698
      2 C2          9.6707    3.5033   13.2458 C.ar        1 A02       0.0533
      3 N3          8.4481    4.0938   13.3705 N.ar        1 A02      -0.2714
      4 C4          7.8857    4.2538   14.5972 C.ar        1 A02       0.1613
      5 C5          8.5588    3.8183   15.7370 C.ar        1 A02       0.1045
      6 C6          9.8165    3.2022   15.6011 C.ar        1 A02       0.1298
      7 N6         10.5027    2.7513   16.6672 N.pl3       1 A02      -0.3152
      8 N7          7.8029    4.0871   16.8059 N.2         1 A02      -0.2958
      9 C8          6.6935    4.6865   16.3427 C.2         1 A02       0.1123
     10 N9          6.7215    4.8007   14.9971 N.pl3       1 A02      -0.1918
     11 OAL         7.7584    7.4583   12.4193 O.2         1 A02      -0.3941
     12 OAN         3.5547    7.2844   12.9832 O.3         1 A02      -0.3840
     13 OAO         4.5690    7.1808   15.5263 O.3         1 A02      -0.3834
     14 OBV         5.9109    5.2345   12.7853 O.3         1 A02      -0.3181
     15 CCC         6.9721    6.9672   11.6134 C.2         1 A02       0.2080
     16 CCK         4.9733    7.4170   13.1011 C.3         1 A02       0.1295
     17 CCL         5.4771    6.8996   14.4586 C.3         1 A02       0.1408
     18 CCM         5.6864    6.4763   12.1014 C.3         1 A02       0.1788
     19 CCN         5.6763    5.3878   14.1953 C.3         1 A02       0.2035
     20 CBZ        14.0631    5.9908    9.0508 C.2         1 A02       0.1782
     21 OAI        14.2922    5.6325   10.2035 O.2         1 A02      -0.3969
     22 CBG        12.9834    5.3273    8.3293 C.3         1 A02       0.0374
     23 CAX        11.5674    5.9420    8.5472 C.3         1 A02      -0.0360
     24 CAU        11.0186    5.7797    9.9949 C.3         1 A02      -0.0492
     25 CAW         9.4788    5.6318   10.0837 C.3         1 A02      -0.0326
     26 CBD         8.6605    6.9307    9.8387 C.3         1 A02       0.0310
     27 NBR         7.3274    6.7822   10.3493 N.am        1 A02      -0.2847
     28 NBS        14.7860    6.9367    8.4645 N.am        1 A02      -0.2656
     29 CCI        15.9505    7.5987    8.9990 C.3         1 A02       0.1308
     30 CCB        16.9876    7.5671    7.9768 C.2         1 A02       0.2016
     31 OAK        16.7568    8.1090    6.8955 O.2         1 A02      -0.3945
     32 CBJ        15.6482    9.0644    9.4425 C.3         1 A02      -0.0122
     33 CAZ        14.5156    9.2276   10.5018 C.3         1 A02      -0.0440
     34 CAS        13.0597    9.2644    9.9526 C.3         1 A02      -0.0124
     35 CAR        12.8679   10.1463    8.6897 C.3         1 A02      -0.0354
     36 NAC        11.4462   10.2185    8.3309 N.4         1 A02       0.2185
     37 CCA        20.8884   11.5655    4.1275 C.2         1 A02       0.1782
     38 OAJ        21.1512   12.5869    4.7654 O.2         1 A02      -0.3969
     39 CBH        21.4208   10.3020    4.6106 C.3         1 A02       0.0374
     40 CAY        20.8919    9.9432    6.0310 C.3         1 A02      -0.0360
     41 CAT        21.1854    8.4683    6.4198 C.3         1 A02      -0.0492
     42 CAV        20.3699    7.9881    7.6566 C.3         1 A02      -0.0326
     43 CBC        19.2726    6.9387    7.2949 C.3         1 A02       0.0310
     44 NBQ        18.1708    6.9874    8.2078 N.am        1 A02      -0.2851
     45 NBT        20.2393   11.6142    2.9658 N.am        1 A02      -0.2656
     46 CCJ        19.7243   12.7498    2.2591 C.3         1 A02       0.1310
     47 CBK        20.6788   13.9875    2.2437 C.3         1 A02      -0.0092
     48 CBB        20.2799   15.0951    1.2250 C.3         1 A02      -0.0156
     49 CBF        21.1106   16.4022    1.3625 C.3         1 A02       0.0627
     50 NBP        22.4137   16.3122    0.8582 N.pl3       1 A02      -0.2723
     51 CBX        22.7893   16.2837   -0.3668 C.cat       1 A02       0.2882
     52 NAB        24.0408   16.1945   -0.6020 N.pl3       1 A02      -0.2849
     53 NAE        22.0036   16.3526   -1.3774 N.pl3       1 A02      -0.2849
     54 CCD        18.3663   13.0916    2.6710 C.2         1 A02       0.2039
     55 OAM        17.4456   12.8776    1.8849 O.2         1 A02      -0.3944
     56 N          18.1223   13.6711    3.8431 N.am        1 A02      -0.2637
     57 CA         16.8656   14.2138    4.2934 C.3         1 A02       0.1307
     58 CB         17.1537   15.4602    5.1958 C.3         1 A02      -0.0092
     59 CG         15.9500   16.4380    5.3115 C.3         1 A02      -0.0156
     60 CD         16.2722   17.8123    5.9553 C.3         1 A02       0.0627
     61 NE         16.5115   17.7238    7.3302 N.pl3       1 A02      -0.2723
     62 CZ         16.6869   18.6946    8.1503 C.cat       1 A02       0.2882
     63 NH1        16.7145   19.9284    7.8190 N.pl3       1 A02      -0.2849
     64 NH2        16.8293   18.4362    9.3930 N.pl3       1 A02      -0.2849
     65 C          16.0577   13.1440    4.8751 C.2         1 A02       0.1992
     66 O          15.8056   12.1496    4.2074 O.2         1 A02      -0.3947
     67 NAF        15.5528   13.1586    6.0885 N.am        1 A02      -0.2990
     68 H1         10.0821    3.3779   12.3184 H           1 A02       0.0996
     69 H2         10.1252    2.8381   17.5576 H           1 A02       0.1820
     70 H3         11.3763    2.3405   16.5422 H           1 A02       0.1820
     71 H4          5.9302    4.9964   16.9413 H           1 A02       0.1349
     72 H5          3.1716    7.9373   13.6086 H           1 A02       0.2102
     73 H6          5.1071    7.1531   16.3468 H           1 A02       0.2101
     74 H7          5.2380    8.4678   12.9548 H           1 A02       0.0673
     75 H8          6.4383    7.3712   14.6901 H           1 A02       0.0678
     76 H9          5.0228    6.2724   11.2551 H           1 A02       0.0869
     77 H10         4.7397    4.8601   14.4053 H           1 A02       0.0998
     78 H11        12.9679    4.2717    8.6245 H           1 A02       0.0502
     79 H12        13.1977    5.3446    7.2536 H           1 A02       0.0502
     80 H13        10.8838    5.4381    7.8493 H           1 A02       0.0290
     81 H14        11.6073    7.0132    8.2943 H           1 A02       0.0290
     82 H15        11.3249    6.6483   10.5908 H           1 A02       0.0267
     83 H16        11.4610    4.8836   10.4452 H           1 A02       0.0267
     84 H17         9.2558    5.2613   11.0868 H           1 A02       0.0285
     85 H18         9.1493    4.8662    9.3753 H           1 A02       0.0285
     86 H19         8.5935    7.1088    8.7604 H           1 A02       0.0520
     87 H20         9.1485    7.7997   10.2896 H           1 A02       0.0520
     88 H21         6.6775    6.3628    9.7564 H           1 A02       0.1851
     89 H22        14.5315    7.1781    7.5580 H           1 A02       0.1883
     90 H23        16.3177    7.0770    9.8914 H           1 A02       0.0800
     91 H24        15.4285    9.6823    8.5705 H           1 A02       0.0312
     92 H25        16.5617    9.4694    9.8878 H           1 A02       0.0312
     93 H26        14.6874   10.1578   11.0541 H           1 A02       0.0269
     94 H27        14.5912    8.4151   11.2312 H           1 A02       0.0269
     95 H28        12.4107    9.6574   10.7472 H           1 A02       0.0317
     96 H29        12.7316    8.2473    9.7200 H           1 A02       0.0317
     97 H30        13.4033    9.7241    7.8342 H           1 A02       0.0813
     98 H31        13.2338   11.1645    8.8712 H           1 A02       0.0813
     99 H32        11.3439   10.7536    7.4626 H           1 A02       0.1994
    100 H33        10.9427   10.6933    9.0817 H           1 A02       0.1994
    101 H34        11.0703    9.2766    8.1991 H           1 A02       0.1994
    102 H35        22.5176   10.3669    4.6319 H           1 A02       0.0502
    103 H36        21.1472    9.4779    3.9309 H           1 A02       0.0502
    104 H37        19.8108   10.1342    6.0595 H           1 A02       0.0290
    105 H38        21.3764   10.5958    6.7662 H           1 A02       0.0290
    106 H39        22.2518    8.3883    6.6546 H           1 A02       0.0267
    107 H40        20.9798    7.7962    5.5784 H           1 A02       0.0267
    108 H41        19.9231    8.8573    8.1523 H           1 A02       0.0285
    109 H42        21.0573    7.5280    8.3770 H           1 A02       0.0285
    110 H43        19.7070    5.9387    7.3451 H           1 A02       0.0520
    111 H44        18.9327    7.0727    6.2610 H           1 A02       0.0520
    112 H45        18.3153    6.5935    9.0859 H           1 A02       0.1851
    113 H46        20.1289   10.7598    2.5111 H           1 A02       0.1883
    114 H47        19.6880   12.3983    1.2214 H           1 A02       0.0800
    115 H48        21.6866   13.6458    1.9886 H           1 A02       0.0313
    116 H49        20.7287   14.4365    3.2396 H           1 A02       0.0313
    117 H50        19.2254   15.3502    1.3620 H           1 A02       0.0301
    118 H51        20.3846   14.7015    0.2097 H           1 A02       0.0301
    119 H52        21.1930   16.6366    2.4270 H           1 A02       0.0689
    120 H53        20.5741   17.2291    0.8849 H           1 A02       0.0689
    121 H54        23.0981   16.2962    1.4961 H           1 A02       0.2642
    122 H55        24.3542   16.1647   -1.4832 H           1 A02       0.2615
    123 H56        24.6496   16.1472    0.1094 H           1 A02       0.2615
    124 H57        21.0815   16.4295   -1.2535 H           1 A02       0.2615
    125 H58        22.3516   16.3181   -2.2424 H           1 A02       0.2615
    126 H59        18.8896   13.8306    4.4163 H           1 A02       0.1883
    127 H60        16.3163   14.5933    3.4224 H           1 A02       0.0800
    128 H61        17.9835   16.0221    4.7560 H           1 A02       0.0313
    129 H62        17.4750   15.1431    6.1902 H           1 A02       0.0313
    130 H63        15.1374   15.9650    5.8710 H           1 A02       0.0301
    131 H64        15.5756   16.6325    4.3010 H           1 A02       0.0301
    132 H65        15.4095   18.4674    5.7906 H           1 A02       0.0689
    133 H66        17.1370   18.2603    5.4561 H           1 A02       0.0689
    134 H67        16.5106   16.8744    7.7040 H           1 A02       0.2642
    135 H68        16.8192   20.5827    8.4758 H           1 A02       0.2615
    136 H69        16.6098   20.1832    6.9300 H           1 A02       0.2615
    137 H70        16.7983   17.5531    9.7021 H           1 A02       0.2615
    138 H71        16.9523   19.1359   10.0052 H           1 A02       0.2615
    139 H72        15.0207   12.4123    6.4034 H           1 A02       0.1815
    140 H73        15.6865   13.9162    6.6709 H           1 A02       0.1815
@<TRIPOS>BOND
     1     2     1  ar
     2     6     1  ar
     3     3     2  ar
     4     4     3  ar
     5     4     5  ar
     6    10     4   1
     7     5     6  ar
     8     8     5   1
     9     6     7   1
    10     9     8   2
    11    10     9   1
    12    19    10   1
    13    15    11   2
    14    16    12   1
    15    17    13   1
    16    18    14   1
    17    14    19   1
    18    15    18   1
    19    27    15  am
    20    16    17   1
    21    18    16   1
    22    17    19   1
    23    20    21   2
    24    20    22   1
    25    28    20  am
    26    22    23   1
    27    23    24   1
    28    24    25   1
    29    25    26   1
    30    26    27   1
    31    29    28   1
    32    30    29   1
    33    29    32   1
    34    30    31   2
    35    44    30  am
    36    32    33   1
    37    33    34   1
    38    34    35   1
    39    35    36   1
    40    37    38   2
    41    39    37   1
    42    37    45  am
    43    40    39   1
    44    41    40   1
    45    42    41   1
    46    43    42   1
    47    43    44   1
    48    45    46   1
    49    46    47   1
    50    46    54   1
    51    47    48   1
    52    48    49   1
    53    49    50   1
    54    50    51  ar
    55    51    52  ar
    56    51    53  ar
    57    54    55   2
    58    54    56  am
    59    56    57   1
    60    57    58   1
    61    57    65   1
    62    58    59   1
    63    59    60   1
    64    60    61   1
    65    61    62  ar
    66    62    63  ar
    67    62    64  ar
    68    65    66   2
    69    65    67  am
    70     2    68   1
    71     7    69   1
    72     7    70   1
    73     9    71   1
    74    12    72   1
    75    13    73   1
    76    16    74   1
    77    17    75   1
    78    18    76   1
    79    19    77   1
    80    22    78   1
    81    22    79   1
    82    23    80   1
    83    23    81   1
    84    24    82   1
    85    24    83   1
    86    25    84   1
    87    25    85   1
    88    26    86   1
    89    26    87   1
    90    27    88   1
    91    28    89   1
    92    29    90   1
    93    32    91   1
    94    32    92   1
    95    33    93   1
    96    33    94   1
    97    34    95   1
    98    34    96   1
    99    35    97   1
   100    35    98   1
   101    36    99   1
   102    36   100   1
   103    36   101   1
   104    39   102   1
   105    39   103   1
   106    40   104   1
   107    40   105   1
   108    41   106   1
   109    41   107   1
   110    42   108   1
   111    42   109   1
   112    43   110   1
   113    43   111   1
   114    44   112   1
   115    45   113   1
   116    46   114   1
   117    47   115   1
   118    47   116   1
   119    48   117   1
   120    48   118   1
   121    49   119   1
   122    49   120   1
   123    50   121   1
   124    52   122   1
   125    52   123   1
   126    53   124   1
   127    53   125   1
   128    56   126   1
   129    57   127   1
   130    58   128   1
   131    58   129   1
   132    59   130   1
   133    59   131   1
   134    60   132   1
   135    60   133   1
   136    61   134   1
   137    63   135   1
   138    63   136   1
   139    64   137   1
   140    64   138   1
   141    67   139   1
   142    67   140   1
@<TRIPOS>SUBSTRUCTURE
     1  A02      2

