@<TRIPOS>MOLECULE
3ag9_ligand_096
   140   142
SMALL
GAST_HUCK
****
This file was generated by PARSER (from files_GN.cpp)

@<TRIPOS>ATOM
      1 N1          0.5794    6.3267   12.5900 N.ar        1 A02      -0.2698
      2 C2          1.1738    5.6477   13.6037 C.ar        1 A02       0.0533
      3 N3          2.4919    5.8469   13.8745 N.ar        1 A02      -0.2714
      4 C4          3.2316    6.7126   13.1314 C.ar        1 A02       0.1613
      5 C5          2.6290    7.4260   12.0965 C.ar        1 A02       0.1045
      6 C6          1.2646    7.2205   11.8242 C.ar        1 A02       0.1298
      7 N6          0.6362    7.8773   10.8338 N.pl3       1 A02      -0.3152
      8 N7          3.5509    8.2188   11.5350 N.2         1 A02      -0.2958
      9 C8          4.6945    7.9967   12.2071 C.2         1 A02       0.1123
     10 N9          4.5281    7.0721   13.1830 N.pl3       1 A02      -0.1918
     11 OAL         8.6022    3.4425   13.7559 O.2         1 A02      -0.3941
     12 OAN         7.1948    5.1843   16.6428 O.3         1 A02      -0.3840
     13 OAO         4.5933    5.9501   16.2011 O.3         1 A02      -0.3834
     14 OBV         6.6891    6.1367   13.2953 O.3         1 A02      -0.3181
     15 CCC         8.4888    4.6259   13.4701 C.2         1 A02       0.2080
     16 CCK         6.7028    4.8967   15.3314 C.3         1 A02       0.1295
     17 CCL         5.3108    5.5027   15.0507 C.3         1 A02       0.1408
     18 CCM         7.5995    5.5110   14.2162 C.3         1 A02       0.1788
     19 CCN         5.5921    6.6508   14.0608 C.3         1 A02       0.2035
     20 CBZ        11.5233    6.8756    6.8559 C.2         1 A02       0.1782
     21 OAI        10.6285    7.5897    7.3111 O.2         1 A02      -0.3969
     22 CBG        11.2468    5.4715    6.6117 C.3         1 A02       0.0374
     23 CAX        10.2722    4.7957    7.6223 C.3         1 A02      -0.0360
     24 CAU        10.7719    4.7525    9.0962 C.3         1 A02      -0.0492
     25 CAW         9.6278    4.5208   10.1234 C.3         1 A02      -0.0326
     26 CBD        10.1195    4.4974   11.5998 C.3         1 A02       0.0310
     27 NBR         9.1804    5.1480   12.4625 N.am        1 A02      -0.2847
     28 NBS        12.7386    7.3614    6.6175 N.am        1 A02      -0.2656
     29 CCI        13.2880    8.6763    6.8141 C.3         1 A02       0.1308
     30 CCB        12.5182    9.7629    6.2062 C.2         1 A02       0.2016
     31 OAK        12.9270   10.2894    5.1755 O.2         1 A02      -0.3945
     32 CBJ        13.7819    8.9365    8.2762 C.3         1 A02      -0.0122
     33 CAZ        12.7276    8.8875    9.4199 C.3         1 A02      -0.0440
     34 CAS        13.3603    8.8349   10.8379 C.3         1 A02      -0.0124
     35 CAR        12.2876    8.6588   11.9474 C.3         1 A02      -0.0354
     36 NAC        12.9082    8.5419   13.2690 N.4         1 A02       0.2185
     37 CCA        14.4176   13.5405    5.6132 C.2         1 A02       0.1782
     38 OAJ        14.7672   12.6987    6.4383 O.2         1 A02      -0.3969
     39 CBH        12.9987   13.7779    5.4092 C.3         1 A02       0.0374
     40 CAY        12.2197   14.2154    6.6865 C.3         1 A02      -0.0360
     41 CAT        11.8173   13.1095    7.7122 C.3         1 A02      -0.0492
     42 CAV        10.4796   12.3589    7.4294 C.3         1 A02      -0.0326
     43 CBC        10.5171   11.2395    6.3579 C.3         1 A02       0.0310
     44 NBQ        11.3919   10.1858    6.7704 N.am        1 A02      -0.2851
     45 NBT        15.3066   14.2474    4.9351 N.am        1 A02      -0.2656
     46 CCJ        16.7274   14.3103    5.1361 C.3         1 A02       0.1310
     47 CBK        17.0673   15.7664    5.5731 C.3         1 A02      -0.0092
     48 CBB        18.4869   15.9447    6.1832 C.3         1 A02      -0.0156
     49 CBF        18.6730   17.3305    6.8499 C.3         1 A02       0.0627
     50 NBP        17.8559   17.4317    7.9794 N.pl3       1 A02      -0.2723
     51 CBX        17.5818   18.4880    8.6489 C.cat       1 A02       0.2882
     52 NAB        18.0181   19.6627    8.3759 N.pl3       1 A02      -0.2849
     53 NAE        16.8015   18.3738    9.6533 N.pl3       1 A02      -0.2849
     54 CCD        17.4445   13.9266    3.9263 C.2         1 A02       0.2039
     55 OAM        17.0831   14.3837    2.8428 O.2         1 A02      -0.3944
     56 N          18.4897   13.1147    4.0032 N.am        1 A02      -0.2637
     57 CA         19.4427   12.7634    2.9774 C.3         1 A02       0.1307
     58 CB         20.5434   13.8646    2.8105 C.3         1 A02      -0.0092
     59 CG         20.0835   15.2726    2.3348 C.3         1 A02      -0.0156
     60 CD         21.2435   16.3042    2.2444 C.3         1 A02       0.0627
     61 NE         20.7973   17.6297    2.2541 N.pl3       1 A02      -0.2723
     62 CZ         20.1738   18.2654    1.3326 C.cat       1 A02       0.2882
     63 NH1        19.8691   17.7824    0.1886 N.pl3       1 A02      -0.2849
     64 NH2        19.8355   19.4722    1.5767 N.pl3       1 A02      -0.2849
     65 C          18.8198   12.2442    1.7640 C.2         1 A02       0.1992
     66 O          19.0295   12.7279    0.6611 O.2         1 A02      -0.3947
     67 NAF        18.0199   11.2020    1.8189 N.am        1 A02      -0.2990
     68 H1          0.6326    4.9879   14.1638 H           1 A02       0.0996
     69 H2          1.1220    8.5111   10.2851 H           1 A02       0.1820
     70 H3         -0.3044    7.7130   10.6660 H           1 A02       0.1820
     71 H4          5.5728    8.4738   11.9914 H           1 A02       0.1349
     72 H5          7.2430    6.1624   16.7037 H           1 A02       0.2102
     73 H6          5.1519    6.6265   16.6341 H           1 A02       0.2101
     74 H7          6.6354    3.8096   15.2515 H           1 A02       0.0673
     75 H8          4.7121    4.7369   14.5519 H           1 A02       0.0678
     76 H9          8.2239    6.2990   14.6544 H           1 A02       0.0869
     77 H10         5.9254    7.5335   14.6210 H           1 A02       0.0998
     78 H11        12.1796    4.8966    6.5952 H           1 A02       0.0502
     79 H12        10.8074    5.4023    5.6133 H           1 A02       0.0502
     80 H13        10.1001    3.7688    7.2889 H           1 A02       0.0290
     81 H14         9.3150    5.3249    7.5634 H           1 A02       0.0290
     82 H15        11.2604    5.7005    9.3354 H           1 A02       0.0267
     83 H16        11.5173    3.9575    9.1911 H           1 A02       0.0267
     84 H17         9.1246    3.5771    9.8932 H           1 A02       0.0285
     85 H18         8.8994    5.3264    9.9886 H           1 A02       0.0285
     86 H19        11.0579    5.0485   11.6963 H           1 A02       0.0520
     87 H20        10.3194    3.4640   11.8937 H           1 A02       0.0520
     88 H21         9.0408    6.0922   12.2843 H           1 A02       0.1851
     89 H22        13.3658    6.7206    6.2392 H           1 A02       0.1883
     90 H23        14.2259    8.6238    6.2524 H           1 A02       0.0800
     91 H24        14.2722    9.9152    8.3133 H           1 A02       0.0312
     92 H25        14.5425    8.1838    8.5004 H           1 A02       0.0312
     93 H26        12.0814    8.0137    9.2898 H           1 A02       0.0269
     94 H27        12.1000    9.7818    9.3697 H           1 A02       0.0269
     95 H28        13.9214    9.7574   11.0202 H           1 A02       0.0317
     96 H29        14.0589    7.9949   10.8918 H           1 A02       0.0317
     97 H30        11.7054    7.7499   11.7611 H           1 A02       0.0813
     98 H31        11.6095    9.5170   11.9515 H           1 A02       0.0813
     99 H32        12.1876    8.3483   13.9705 H           1 A02       0.1994
    100 H33        13.3770    9.4212   13.4925 H           1 A02       0.1994
    101 H34        13.5860    7.7767   13.2461 H           1 A02       0.1994
    102 H35        12.5599   12.8868    4.9790 H           1 A02       0.0502
    103 H36        12.8633   14.5711    4.6673 H           1 A02       0.0502
    104 H37        11.3094   14.7348    6.3725 H           1 A02       0.0290
    105 H38        12.8293   14.9623    7.2102 H           1 A02       0.0290
    106 H39        11.6962   13.6044    8.6811 H           1 A02       0.0267
    107 H40        12.6266   12.3926    7.8391 H           1 A02       0.0267
    108 H41         9.7123   13.0864    7.1517 H           1 A02       0.0285
    109 H42        10.1491   11.8993    8.3679 H           1 A02       0.0285
    110 H43        10.7602   11.6498    5.3814 H           1 A02       0.0520
    111 H44         9.5163   10.8077    6.2797 H           1 A02       0.0520
    112 H45        11.1173    9.7225    7.5804 H           1 A02       0.1851
    113 H46        14.9544   14.8628    4.2688 H           1 A02       0.1883
    114 H47        17.0203   13.6475    5.9559 H           1 A02       0.0800
    115 H48        16.3327   16.0682    6.3264 H           1 A02       0.0313
    116 H49        16.9502   16.4503    4.7237 H           1 A02       0.0313
    117 H50        19.2331   15.8328    5.3967 H           1 A02       0.0301
    118 H51        18.6702   15.1653    6.9281 H           1 A02       0.0301
    119 H52        18.4310   18.1068    6.1191 H           1 A02       0.0689
    120 H53        19.7157   17.4511    7.1512 H           1 A02       0.0689
    121 H54        17.4330   16.6451    8.2691 H           1 A02       0.2642
    122 H55        17.7474   20.3785    8.9085 H           1 A02       0.2615
    123 H56        18.5890   19.8035    7.6499 H           1 A02       0.2615
    124 H57        16.4608   17.5323    9.8927 H           1 A02       0.2615
    125 H58        16.5809   19.1383   10.1463 H           1 A02       0.2615
    126 H59        18.6917   12.7597    4.8871 H           1 A02       0.1883
    127 H60        19.9836   11.9080    3.3949 H           1 A02       0.0800
    128 H61        21.3013   13.4963    2.1143 H           1 A02       0.0313
    129 H62        21.0375   13.9877    3.7806 H           1 A02       0.0313
    130 H63        19.3510   15.6644    3.0393 H           1 A02       0.0301
    131 H64        19.6027   15.1908    1.3586 H           1 A02       0.0301
    132 H65        21.8612   16.1092    1.3604 H           1 A02       0.0689
    133 H66        21.8845   16.1891    3.1220 H           1 A02       0.0689
    134 H67        20.9725   18.1080    3.0393 H           1 A02       0.2642
    135 H68        19.4119   18.3080   -0.4363 H           1 A02       0.2615
    136 H69        20.1030   16.9053   -0.0316 H           1 A02       0.2615
    137 H70        20.0413   19.8543    2.4064 H           1 A02       0.2615
    138 H71        19.3779   19.9758    0.9342 H           1 A02       0.2615
    139 H72        17.6283   10.8469    1.0050 H           1 A02       0.1815
    140 H73        17.8365   10.7683    2.6687 H           1 A02       0.1815
@<TRIPOS>BOND
     1     2     1  ar
     2     6     1  ar
     3     3     2  ar
     4     4     3  ar
     5     4     5  ar
     6    10     4   1
     7     5     6  ar
     8     8     5   1
     9     6     7   1
    10     9     8   2
    11    10     9   1
    12    19    10   1
    13    15    11   2
    14    16    12   1
    15    17    13   1
    16    18    14   1
    17    14    19   1
    18    15    18   1
    19    27    15  am
    20    16    17   1
    21    18    16   1
    22    17    19   1
    23    20    21   2
    24    20    22   1
    25    28    20  am
    26    22    23   1
    27    23    24   1
    28    24    25   1
    29    25    26   1
    30    26    27   1
    31    29    28   1
    32    30    29   1
    33    29    32   1
    34    30    31   2
    35    44    30  am
    36    32    33   1
    37    33    34   1
    38    34    35   1
    39    35    36   1
    40    37    38   2
    41    39    37   1
    42    37    45  am
    43    40    39   1
    44    41    40   1
    45    42    41   1
    46    43    42   1
    47    43    44   1
    48    45    46   1
    49    46    47   1
    50    46    54   1
    51    47    48   1
    52    48    49   1
    53    49    50   1
    54    50    51  ar
    55    51    52  ar
    56    51    53  ar
    57    54    55   2
    58    54    56  am
    59    56    57   1
    60    57    58   1
    61    57    65   1
    62    58    59   1
    63    59    60   1
    64    60    61   1
    65    61    62  ar
    66    62    63  ar
    67    62    64  ar
    68    65    66   2
    69    65    67  am
    70     2    68   1
    71     7    69   1
    72     7    70   1
    73     9    71   1
    74    12    72   1
    75    13    73   1
    76    16    74   1
    77    17    75   1
    78    18    76   1
    79    19    77   1
    80    22    78   1
    81    22    79   1
    82    23    80   1
    83    23    81   1
    84    24    82   1
    85    24    83   1
    86    25    84   1
    87    25    85   1
    88    26    86   1
    89    26    87   1
    90    27    88   1
    91    28    89   1
    92    29    90   1
    93    32    91   1
    94    32    92   1
    95    33    93   1
    96    33    94   1
    97    34    95   1
    98    34    96   1
    99    35    97   1
   100    35    98   1
   101    36    99   1
   102    36   100   1
   103    36   101   1
   104    39   102   1
   105    39   103   1
   106    40   104   1
   107    40   105   1
   108    41   106   1
   109    41   107   1
   110    42   108   1
   111    42   109   1
   112    43   110   1
   113    43   111   1
   114    44   112   1
   115    45   113   1
   116    46   114   1
   117    47   115   1
   118    47   116   1
   119    48   117   1
   120    48   118   1
   121    49   119   1
   122    49   120   1
   123    50   121   1
   124    52   122   1
   125    52   123   1
   126    53   124   1
   127    53   125   1
   128    56   126   1
   129    57   127   1
   130    58   128   1
   131    58   129   1
   132    59   130   1
   133    59   131   1
   134    60   132   1
   135    60   133   1
   136    61   134   1
   137    63   135   1
   138    63   136   1
   139    64   137   1
   140    64   138   1
   141    67   139   1
   142    67   140   1
@<TRIPOS>SUBSTRUCTURE
     1  A02      2

