@<TRIPOS>MOLECULE
3ag9_ligand_010
   140   142
SMALL
GAST_HUCK
****
This file was generated by PARSER (from files_GN.cpp)

@<TRIPOS>ATOM
      1 N1          5.1217   13.7680   10.9436 N.ar        1 A02      -0.2698
      2 C2          4.3712   13.7442   12.0814 C.ar        1 A02       0.0533
      3 N3          4.1838   12.5748   12.7515 N.ar        1 A02      -0.2714
      4 C4          4.7400   11.4278   12.2833 C.ar        1 A02       0.1613
      5 C5          5.5104   11.4334   11.1219 C.ar        1 A02       0.1045
      6 C6          5.7029   12.6467   10.4443 C.ar        1 A02       0.1298
      7 N6          6.4424   12.7147    9.3229 N.pl3       1 A02      -0.3152
      8 N7          5.9264   10.1849   10.8792 N.2         1 A02      -0.2958
      9 C8          5.4236    9.4218   11.8644 C.2         1 A02       0.1123
     10 N9          4.6980   10.1591   12.7310 N.pl3       1 A02      -0.1918
     11 OAL         4.3782    5.8617   14.0342 O.2         1 A02      -0.3941
     12 OAN         1.9127    8.6666   15.8426 O.3         1 A02      -0.3840
     13 OAO         1.6427    9.5554   13.2407 O.3         1 A02      -0.3834
     14 OBV         4.8924    8.8673   14.7008 O.3         1 A02      -0.3181
     15 CCC         4.7993    6.5396   14.9697 C.2         1 A02       0.2080
     16 CCK         2.6651    7.9608   14.8539 C.3         1 A02       0.1295
     17 CCL         2.8043    8.7860   13.5663 C.3         1 A02       0.1408
     18 CCM         4.1418    7.8005   15.3048 C.3         1 A02       0.1788
     19 CCN         4.0185    9.6739   13.8991 C.3         1 A02       0.2035
     20 CBZ         9.0680    4.9902   10.6299 C.2         1 A02       0.1782
     21 OAI         9.4093    6.1074   10.9776 O.2         1 A02      -0.3969
     22 CBG         8.1050    4.2698   11.4456 C.3         1 A02       0.0374
     23 CAX         8.4954    4.0878   12.9371 C.3         1 A02      -0.0360
     24 CAU         8.4601    5.3945   13.7872 C.3         1 A02      -0.0492
     25 CAW         8.1032    5.1521   15.2865 C.3         1 A02      -0.0326
     26 CBD         6.5859    4.9274   15.5490 C.3         1 A02       0.0310
     27 NBR         5.8780    6.1733   15.6427 N.am        1 A02      -0.2847
     28 NBS         9.4564    4.4742    9.4678 N.am        1 A02      -0.2656
     29 CCI        10.3440    5.0793    8.5116 C.3         1 A02       0.1308
     30 CCB        10.8631    4.0162    7.6559 C.2         1 A02       0.2016
     31 OAK        10.9641    4.1932    6.4359 O.2         1 A02      -0.3945
     32 CBJ         9.6395    6.2796    7.7877 C.3         1 A02      -0.0122
     33 CAZ        10.6033    7.2333    7.0225 C.3         1 A02      -0.0440
     34 CAS        10.0975    8.6985    6.8969 C.3         1 A02      -0.0124
     35 CAR        10.2831    9.5470    8.1799 C.3         1 A02      -0.0354
     36 NAC         9.6000   10.8427    8.0825 N.4         1 A02       0.2185
     37 CCA        16.7344    0.9596    7.1503 C.2         1 A02       0.1782
     38 OAJ        16.8559    0.3006    8.1802 O.2         1 A02      -0.3969
     39 CBH        15.9747    0.4088    6.0361 C.3         1 A02       0.0374
     40 CAY        14.8734    1.3575    5.4574 C.3         1 A02      -0.0360
     41 CAT        14.0374    2.2070    6.4675 C.3         1 A02      -0.0492
     42 CAV        13.2286    1.3821    7.5171 C.3         1 A02      -0.0326
     43 CBC        11.7106    1.6924    7.5418 C.3         1 A02       0.0310
     44 NBQ        11.3671    2.9165    8.2028 N.am        1 A02      -0.2851
     45 NBT        17.2259    2.1949    7.0433 N.am        1 A02      -0.2656
     46 CCJ        17.7882    3.0375    8.0607 C.3         1 A02       0.1310
     47 CBK        19.1850    2.6009    8.6130 C.3         1 A02      -0.0092
     48 CBB        19.2802    1.2085    9.3118 C.3         1 A02      -0.0156
     49 CBF        20.5676    1.0415   10.1725 C.3         1 A02       0.0627
     50 NBP        21.6829    1.7163    9.6778 N.pl3       1 A02      -0.2723
     51 CBX        22.4100    1.4045    8.6698 C.cat       1 A02       0.2882
     52 NAB        22.2534    0.3800    7.9189 N.pl3       1 A02      -0.2849
     53 NAE        23.3735    2.1970    8.4004 N.pl3       1 A02      -0.2849
     54 CCD        16.8358    3.3975    9.1172 C.2         1 A02       0.2039
     55 OAM        16.7255    2.6410   10.0814 O.2         1 A02      -0.3944
     56 N          16.1703    4.5411    9.0492 N.am        1 A02      -0.2637
     57 CA         15.2741    5.0806   10.0378 C.3         1 A02       0.1307
     58 CB         13.9028    4.3302    9.9963 C.3         1 A02      -0.0092
     59 CG         12.8974    4.6762   11.1343 C.3         1 A02      -0.0156
     60 CD         13.3060    4.1771   12.5457 C.3         1 A02       0.0627
     61 NE         13.1139    2.7961   12.6611 N.pl3       1 A02      -0.2723
     62 CZ         13.4271    2.0303   13.6397 C.cat       1 A02       0.2882
     63 NH1        14.0069    2.4255   14.7096 N.pl3       1 A02      -0.2849
     64 NH2        13.1289    0.7951   13.5346 N.pl3       1 A02      -0.2849
     65 C          15.2066    6.5087    9.8022 C.2         1 A02       0.1992
     66 O          14.2699    7.0511    9.2177 O.2         1 A02      -0.3947
     67 NAF        16.1918    7.2923   10.1971 N.am        1 A02      -0.2990
     68 H1          3.9501   14.6077   12.4288 H           1 A02       0.0996
     69 H2          6.8561   11.9142    8.9645 H           1 A02       0.1820
     70 H3          6.5701   13.5670    8.8755 H           1 A02       0.1820
     71 H4          5.5781    8.4148   11.9362 H           1 A02       0.1349
     72 H5          0.9810    8.6358   15.5318 H           1 A02       0.2102
     73 H6          0.9415    8.8950   13.0475 H           1 A02       0.2101
     74 H7          2.1699    7.0059   14.6663 H           1 A02       0.0673
     75 H8          3.0291    8.1166   12.7244 H           1 A02       0.0678
     76 H9          4.1921    7.9325   16.3899 H           1 A02       0.0869
     77 H10         3.6776   10.5107   14.5167 H           1 A02       0.0998
     78 H11         7.9453    3.2735   11.0318 H           1 A02       0.0502
     79 H12         7.1507    4.7943   11.3880 H           1 A02       0.0502
     80 H13         9.4934    3.6359   13.0095 H           1 A02       0.0290
     81 H14         7.7776    3.3809   13.3700 H           1 A02       0.0290
     82 H15         7.7412    6.1031   13.3733 H           1 A02       0.0267
     83 H16         9.4437    5.8730   13.7439 H           1 A02       0.0267
     84 H17         8.4422    6.0087   15.8860 H           1 A02       0.0285
     85 H18         8.6558    4.2765   15.6513 H           1 A02       0.0285
     86 H19         6.4707    4.4297   16.5180 H           1 A02       0.0520
     87 H20         6.1781    4.2622   14.7760 H           1 A02       0.0520
     88 H21         6.1752    6.7746   16.3453 H           1 A02       0.1851
     89 H22         9.1232    3.5830    9.2617 H           1 A02       0.1883
     90 H23        11.2001    5.4753    9.0682 H           1 A02       0.0800
     91 H24         9.1078    6.8632    8.5339 H           1 A02       0.0312
     92 H25         8.8739    5.9016    7.1018 H           1 A02       0.0312
     93 H26        10.7566    6.8289    6.0192 H           1 A02       0.0269
     94 H27        11.5834    7.2569    7.5106 H           1 A02       0.0269
     95 H28         9.0428    8.6950    6.6092 H           1 A02       0.0317
     96 H29        10.6579    9.1823    6.0897 H           1 A02       0.0317
     97 H30        11.3434    9.7356    8.3564 H           1 A02       0.0813
     98 H31         9.8712    9.0391    9.0536 H           1 A02       0.0813
     99 H32         9.7792   11.3898    8.9327 H           1 A02       0.1994
    100 H33         8.5919   10.6947    7.9785 H           1 A02       0.1994
    101 H34         9.9522   11.3619    7.2699 H           1 A02       0.1994
    102 H35        15.4995   -0.5357    6.3313 H           1 A02       0.0502
    103 H36        16.6814    0.1689    5.2304 H           1 A02       0.0502
    104 H37        14.1801    0.7389    4.8704 H           1 A02       0.0290
    105 H38        15.3545    2.0541    4.7560 H           1 A02       0.0290
    106 H39        13.3518    2.8254    5.8710 H           1 A02       0.0267
    107 H40        14.7181    2.8876    6.9938 H           1 A02       0.0267
    108 H41        13.6479    1.5635    8.5194 H           1 A02       0.0285
    109 H42        13.3258    0.3087    7.3116 H           1 A02       0.0285
    110 H43        11.2114    0.9017    8.0997 H           1 A02       0.0520
    111 H44        11.3245    1.6576    6.5193 H           1 A02       0.0520
    112 H45        11.3671    2.8828    9.1794 H           1 A02       0.1851
    113 H46        17.0955    2.6285    6.1786 H           1 A02       0.1883
    114 H47        18.0203    3.9546    7.5057 H           1 A02       0.0800
    115 H48        19.5244    3.3814    9.3083 H           1 A02       0.0313
    116 H49        19.8969    2.5976    7.7744 H           1 A02       0.0313
    117 H50        19.2410    0.4231    8.5468 H           1 A02       0.0301
    118 H51        18.4287    1.0745    9.9878 H           1 A02       0.0301
    119 H52        20.7978   -0.0243   10.2903 H           1 A02       0.0689
    120 H53        20.3609    1.4446   11.1673 H           1 A02       0.0689
    121 H54        21.9276    2.4996   10.1265 H           1 A02       0.2642
    122 H55        22.8346    0.2508    7.1974 H           1 A02       0.2615
    123 H56        21.5630   -0.2291    8.0787 H           1 A02       0.2615
    124 H57        23.5241    2.9471    8.9392 H           1 A02       0.2615
    125 H58        23.9453    2.0199    7.6839 H           1 A02       0.2615
    126 H59        16.3447    5.1013    8.2663 H           1 A02       0.1883
    127 H60        15.7159    4.9207   11.0236 H           1 A02       0.0800
    128 H61        14.0671    3.2451   10.0180 H           1 A02       0.0313
    129 H62        13.4264    4.5503    9.0381 H           1 A02       0.0313
    130 H63        11.9251    4.2342   10.8962 H           1 A02       0.0301
    131 H64        12.7453    5.7574   11.1833 H           1 A02       0.0301
    132 H65        12.6764    4.6709   13.2942 H           1 A02       0.0689
    133 H66        14.3425    4.4691   12.7502 H           1 A02       0.0689
    134 H67        12.7095    2.3787   11.9273 H           1 A02       0.2642
    135 H68        14.2097    1.8147   15.3830 H           1 A02       0.2615
    136 H69        14.2151    3.3274   14.8209 H           1 A02       0.2615
    137 H70        12.6891    0.4877   12.7690 H           1 A02       0.2615
    138 H71        13.3319    0.2024   14.2249 H           1 A02       0.2615
    139 H72        16.1441    8.2513   10.0619 H           1 A02       0.1815
    140 H73        16.9702    6.8973   10.6291 H           1 A02       0.1815
@<TRIPOS>BOND
     1     2     1  ar
     2     6     1  ar
     3     3     2  ar
     4     4     3  ar
     5     4     5  ar
     6    10     4   1
     7     5     6  ar
     8     8     5   1
     9     6     7   1
    10     9     8   2
    11    10     9   1
    12    19    10   1
    13    15    11   2
    14    16    12   1
    15    17    13   1
    16    18    14   1
    17    14    19   1
    18    15    18   1
    19    27    15  am
    20    16    17   1
    21    18    16   1
    22    17    19   1
    23    20    21   2
    24    20    22   1
    25    28    20  am
    26    22    23   1
    27    23    24   1
    28    24    25   1
    29    25    26   1
    30    26    27   1
    31    29    28   1
    32    30    29   1
    33    29    32   1
    34    30    31   2
    35    44    30  am
    36    32    33   1
    37    33    34   1
    38    34    35   1
    39    35    36   1
    40    37    38   2
    41    39    37   1
    42    37    45  am
    43    40    39   1
    44    41    40   1
    45    42    41   1
    46    43    42   1
    47    43    44   1
    48    45    46   1
    49    46    47   1
    50    46    54   1
    51    47    48   1
    52    48    49   1
    53    49    50   1
    54    50    51  ar
    55    51    52  ar
    56    51    53  ar
    57    54    55   2
    58    54    56  am
    59    56    57   1
    60    57    58   1
    61    57    65   1
    62    58    59   1
    63    59    60   1
    64    60    61   1
    65    61    62  ar
    66    62    63  ar
    67    62    64  ar
    68    65    66   2
    69    65    67  am
    70     2    68   1
    71     7    69   1
    72     7    70   1
    73     9    71   1
    74    12    72   1
    75    13    73   1
    76    16    74   1
    77    17    75   1
    78    18    76   1
    79    19    77   1
    80    22    78   1
    81    22    79   1
    82    23    80   1
    83    23    81   1
    84    24    82   1
    85    24    83   1
    86    25    84   1
    87    25    85   1
    88    26    86   1
    89    26    87   1
    90    27    88   1
    91    28    89   1
    92    29    90   1
    93    32    91   1
    94    32    92   1
    95    33    93   1
    96    33    94   1
    97    34    95   1
    98    34    96   1
    99    35    97   1
   100    35    98   1
   101    36    99   1
   102    36   100   1
   103    36   101   1
   104    39   102   1
   105    39   103   1
   106    40   104   1
   107    40   105   1
   108    41   106   1
   109    41   107   1
   110    42   108   1
   111    42   109   1
   112    43   110   1
   113    43   111   1
   114    44   112   1
   115    45   113   1
   116    46   114   1
   117    47   115   1
   118    47   116   1
   119    48   117   1
   120    48   118   1
   121    49   119   1
   122    49   120   1
   123    50   121   1
   124    52   122   1
   125    52   123   1
   126    53   124   1
   127    53   125   1
   128    56   126   1
   129    57   127   1
   130    58   128   1
   131    58   129   1
   132    59   130   1
   133    59   131   1
   134    60   132   1
   135    60   133   1
   136    61   134   1
   137    63   135   1
   138    63   136   1
   139    64   137   1
   140    64   138   1
   141    67   139   1
   142    67   140   1
@<TRIPOS>SUBSTRUCTURE
     1  A02      2

