@<TRIPOS>MOLECULE
3ag9_ligand_068
   140   142
SMALL
GAST_HUCK
****
This file was generated by PARSER (from files_GN.cpp)

@<TRIPOS>ATOM
      1 N1          0.2401   12.0766   15.3309 N.ar        1 A02      -0.2698
      2 C2          1.1331   11.4798   16.1651 C.ar        1 A02       0.0533
      3 N3          1.8501   10.4018   15.7460 N.ar        1 A02      -0.2714
      4 C4          1.6825    9.9231   14.4823 C.ar        1 A02       0.1613
      5 C5          0.7810   10.5288   13.6128 C.ar        1 A02       0.1045
      6 C6          0.0372   11.6323   14.0600 C.ar        1 A02       0.1298
      7 N6         -0.8629   12.2373   13.2647 N.pl3       1 A02      -0.3152
      8 N7          0.8185    9.8856   12.4399 N.2         1 A02      -0.2958
      9 C8          1.7233    8.8990   12.5840 C.2         1 A02       0.1123
     10 N9          2.2561    8.8953   13.8292 N.pl3       1 A02      -0.1918
     11 OAL         6.2206   10.0921   13.0246 O.2         1 A02      -0.3941
     12 OAN         5.6926    5.9675   12.5613 O.3         1 A02      -0.3840
     13 OAO         3.7806    5.6292   14.5224 O.3         1 A02      -0.3834
     14 OBV         4.4672    8.7691   14.5200 O.3         1 A02      -0.3181
     15 CCC         6.5380    8.9420   13.3072 C.2         1 A02       0.2080
     16 CCK         4.8833    7.0983   12.8803 C.3         1 A02       0.1295
     17 CCL         3.5902    6.7179   13.6165 C.3         1 A02       0.1408
     18 CCM         5.5502    8.0539   13.8931 C.3         1 A02       0.1788
     19 CCN         3.2480    8.0168   14.3965 C.3         1 A02       0.2035
     20 CBZ         8.1622   10.6747    7.4591 C.2         1 A02       0.1782
     21 OAI         8.3540   10.0021    6.4554 O.2         1 A02      -0.3969
     22 CBG         7.1285   10.2706    8.3997 C.3         1 A02       0.0374
     23 CAX         7.6557   10.0136    9.8433 C.3         1 A02      -0.0360
     24 CAU         8.4203    8.6713   10.0211 C.3         1 A02      -0.0492
     25 CAW         9.3895    8.6250   11.2357 C.3         1 A02      -0.0326
     26 CBD         8.8727    9.2434   12.5605 C.3         1 A02       0.0310
     27 NBR         7.7770    8.5030   13.1078 N.am        1 A02      -0.2847
     28 NBS         8.8499   11.7840    7.7215 N.am        1 A02      -0.2656
     29 CCI         9.9488   12.4278    7.0562 C.3         1 A02       0.1308
     30 CCB        11.1554   12.1603    7.8278 C.2         1 A02       0.2016
     31 OAK        11.6817   13.0800    8.4458 O.2         1 A02      -0.3945
     32 CBJ        10.1852   12.1718    5.5294 C.3         1 A02      -0.0122
     33 CAZ         9.0857   12.7612    4.5928 C.3         1 A02      -0.0440
     34 CAS         9.3552   14.2007    4.0676 C.3         1 A02      -0.0124
     35 CAR         9.5233   15.2869    5.1567 C.3         1 A02      -0.0354
     36 NAC         9.4985   16.6303    4.5682 N.4         1 A02       0.2185
     37 CCA        15.4375   14.1664    4.7411 C.2         1 A02       0.1782
     38 OAJ        15.3533   13.7777    3.5758 O.2         1 A02      -0.3969
     39 CBH        14.4872   13.6483    5.7095 C.3         1 A02       0.0374
     40 CAY        14.9757   12.3565    6.4397 C.3         1 A02      -0.0360
     41 CAT        14.1738   11.0544    6.1087 C.3         1 A02      -0.0492
     42 CAV        13.9555   10.0761    7.3021 C.3         1 A02      -0.0326
     43 CBC        12.9379   10.5419    8.3827 C.3         1 A02       0.0310
     44 NBQ        11.7013   10.9518    7.7918 N.am        1 A02      -0.2851
     45 NBT        16.3783   15.0142    5.1362 N.am        1 A02      -0.2656
     46 CCJ        17.4142   15.6238    4.3402 C.3         1 A02       0.1310
     47 CBK        18.8226   15.0986    4.7967 C.3         1 A02      -0.0092
     48 CBB        19.8109   14.7136    3.6443 C.3         1 A02      -0.0156
     49 CBF        20.9039   15.7554    3.2842 C.3         1 A02       0.0627
     50 NBP        20.4697   17.0475    2.9953 N.pl3       1 A02      -0.2723
     51 CBX        19.7968   17.4594    1.9822 C.cat       1 A02       0.2882
     52 NAB        19.5666   18.7153    1.9043 N.pl3       1 A02      -0.2849
     53 NAE        19.3388   16.7092    1.0427 N.pl3       1 A02      -0.2849
     54 CCD        17.2725   17.0728    4.4434 C.2         1 A02       0.2039
     55 OAM        17.2725   17.7380    3.4094 O.2         1 A02      -0.3944
     56 N          17.1154   17.6636    5.6314 N.am        1 A02      -0.2637
     57 CA         16.9298   19.0743    5.8870 C.3         1 A02       0.1307
     58 CB         18.2695   19.8527    5.6231 C.3         1 A02      -0.0092
     59 CG         19.0585   20.4881    6.8190 C.3         1 A02      -0.0156
     60 CD         19.7097   19.5139    7.8518 C.3         1 A02       0.0627
     61 NE         18.8432   19.1933    8.9061 N.pl3       1 A02      -0.2723
     62 CZ         18.2190   18.0935    9.1348 C.cat       1 A02       0.2882
     63 NH1        18.2540   17.0412    8.4041 N.pl3       1 A02      -0.2849
     64 NH2        17.4801   18.0681   10.1738 N.pl3       1 A02      -0.2849
     65 C          16.3306   19.3249    7.1902 C.2         1 A02       0.1992
     66 O          15.9330   18.4172    7.9125 O.2         1 A02      -0.3947
     67 NAF        16.1798   20.5536    7.6425 N.am        1 A02      -0.2990
     68 H1          1.2653   11.8412   17.1121 H           1 A02       0.0996
     69 H2         -1.0079   11.9071   12.3653 H           1 A02       0.1820
     70 H3         -1.3718   12.9922   13.5959 H           1 A02       0.1820
     71 H4          1.9672    8.2598   11.8273 H           1 A02       0.1349
     72 H5          5.1737    5.4636   11.8997 H           1 A02       0.2102
     73 H6          4.7336    5.3969   14.4646 H           1 A02       0.2101
     74 H7          4.6380    7.6333   11.9556 H           1 A02       0.0673
     75 H8          2.8057    6.4175   12.9196 H           1 A02       0.0678
     76 H9          6.0459    7.4666   14.6746 H           1 A02       0.0869
     77 H10         2.9135    7.7399   15.4032 H           1 A02       0.0998
     78 H11         6.6075    9.3750    8.0493 H           1 A02       0.0502
     79 H12         6.3873   11.0745    8.4400 H           1 A02       0.0502
     80 H13         6.7935   10.0050   10.5182 H           1 A02       0.0290
     81 H14         8.2897   10.8439   10.1587 H           1 A02       0.0290
     82 H15         9.0152    8.4716    9.1244 H           1 A02       0.0267
     83 H16         7.6922    7.8583   10.1120 H           1 A02       0.0267
     84 H17        10.3115    9.1467   10.9558 H           1 A02       0.0285
     85 H18         9.6543    7.5804   11.4192 H           1 A02       0.0285
     86 H19         8.6282   10.2956   12.3943 H           1 A02       0.0520
     87 H20         9.6848    9.2176   13.2923 H           1 A02       0.0520
     88 H21         7.9625    7.5852   13.3685 H           1 A02       0.1851
     89 H22         8.5959   12.2170    8.5484 H           1 A02       0.1883
     90 H23         9.7096   13.4899    7.1508 H           1 A02       0.0800
     91 H24        10.2722   11.0952    5.3571 H           1 A02       0.0312
     92 H25        11.1507   12.5977    5.2376 H           1 A02       0.0312
     93 H26         8.1144   12.7338    5.0879 H           1 A02       0.0269
     94 H27         9.0113   12.1097    3.7146 H           1 A02       0.0269
     95 H28         8.5158   14.4831    3.4225 H           1 A02       0.0317
     96 H29        10.2549   14.1883    3.4430 H           1 A02       0.0317
     97 H30        10.4822   15.1686    5.6616 H           1 A02       0.0813
     98 H31         8.7207   15.2115    5.8916 H           1 A02       0.0813
     99 H32         9.6326   17.3269    5.3068 H           1 A02       0.1994
    100 H33         8.5997   16.7925    4.1107 H           1 A02       0.1994
    101 H34        10.2513   16.7195    3.8824 H           1 A02       0.1994
    102 H35        13.5230   13.4964    5.2151 H           1 A02       0.0502
    103 H36        14.2994   14.4192    6.4667 H           1 A02       0.0502
    104 H37        14.9111   12.5460    7.5058 H           1 A02       0.0290
    105 H38        16.0341   12.1749    6.2416 H           1 A02       0.0290
    106 H39        14.7123   10.5123    5.3220 H           1 A02       0.0267
    107 H40        13.1896   11.2945    5.6993 H           1 A02       0.0267
    108 H41        14.9189    9.8919    7.7890 H           1 A02       0.0285
    109 H42        13.6023    9.1233    6.9023 H           1 A02       0.0285
    110 H43        13.3820   11.3255    9.0056 H           1 A02       0.0520
    111 H44        12.7215    9.7020    9.0509 H           1 A02       0.0520
    112 H45        11.2397   10.2781    7.2683 H           1 A02       0.1851
    113 H46        16.4001   15.2056    6.0893 H           1 A02       0.1883
    114 H47        17.2618   15.3340    3.2937 H           1 A02       0.0800
    115 H48        18.6717   14.1947    5.3951 H           1 A02       0.0313
    116 H49        19.3034   15.8156    5.4702 H           1 A02       0.0313
    117 H50        19.2651   14.4342    2.7417 H           1 A02       0.0301
    118 H51        20.3466   13.8115    3.9565 H           1 A02       0.0301
    119 H52        21.4941   15.3732    2.4440 H           1 A02       0.0689
    120 H53        21.5825   15.8346    4.1367 H           1 A02       0.0689
    121 H54        20.7702   17.7152    3.5760 H           1 A02       0.2642
    122 H55        19.0752   19.0610    1.1901 H           1 A02       0.2615
    123 H56        19.8842   19.2796    2.5763 H           1 A02       0.2615
    124 H57        19.4960   15.7885    1.0587 H           1 A02       0.2615
    125 H58        18.8658   17.0910    0.3320 H           1 A02       0.2615
    126 H59        17.1145   17.0772    6.4020 H           1 A02       0.1883
    127 H60        16.1795   19.4429    5.1708 H           1 A02       0.0800
    128 H61        18.0343   20.6787    4.9422 H           1 A02       0.0313
    129 H62        18.9565   19.1989    5.0713 H           1 A02       0.0313
    130 H63        18.4221   21.2128    7.3449 H           1 A02       0.0301
    131 H64        19.8623   21.0701    6.3604 H           1 A02       0.0301
    132 H65        20.5531   20.0414    8.3152 H           1 A02       0.0689
    133 H66        20.1169   18.6446    7.3320 H           1 A02       0.0689
    134 H67        18.6757   19.8734    9.5301 H           1 A02       0.2642
    135 H68        17.6992   16.3282    8.6241 H           1 A02       0.2615
    136 H69        18.7761   17.0032    7.6358 H           1 A02       0.2615
    137 H70        17.4370   18.8269   10.7217 H           1 A02       0.2615
    138 H71        16.9935   17.2971   10.3754 H           1 A02       0.2615
    139 H72        15.8680   20.6891    8.5528 H           1 A02       0.1815
    140 H73        16.4983   21.3050    7.1120 H           1 A02       0.1815
@<TRIPOS>BOND
     1     2     1  ar
     2     6     1  ar
     3     3     2  ar
     4     4     3  ar
     5     4     5  ar
     6    10     4   1
     7     5     6  ar
     8     8     5   1
     9     6     7   1
    10     9     8   2
    11    10     9   1
    12    19    10   1
    13    15    11   2
    14    16    12   1
    15    17    13   1
    16    18    14   1
    17    14    19   1
    18    15    18   1
    19    27    15  am
    20    16    17   1
    21    18    16   1
    22    17    19   1
    23    20    21   2
    24    20    22   1
    25    28    20  am
    26    22    23   1
    27    23    24   1
    28    24    25   1
    29    25    26   1
    30    26    27   1
    31    29    28   1
    32    30    29   1
    33    29    32   1
    34    30    31   2
    35    44    30  am
    36    32    33   1
    37    33    34   1
    38    34    35   1
    39    35    36   1
    40    37    38   2
    41    39    37   1
    42    37    45  am
    43    40    39   1
    44    41    40   1
    45    42    41   1
    46    43    42   1
    47    43    44   1
    48    45    46   1
    49    46    47   1
    50    46    54   1
    51    47    48   1
    52    48    49   1
    53    49    50   1
    54    50    51  ar
    55    51    52  ar
    56    51    53  ar
    57    54    55   2
    58    54    56  am
    59    56    57   1
    60    57    58   1
    61    57    65   1
    62    58    59   1
    63    59    60   1
    64    60    61   1
    65    61    62  ar
    66    62    63  ar
    67    62    64  ar
    68    65    66   2
    69    65    67  am
    70     2    68   1
    71     7    69   1
    72     7    70   1
    73     9    71   1
    74    12    72   1
    75    13    73   1
    76    16    74   1
    77    17    75   1
    78    18    76   1
    79    19    77   1
    80    22    78   1
    81    22    79   1
    82    23    80   1
    83    23    81   1
    84    24    82   1
    85    24    83   1
    86    25    84   1
    87    25    85   1
    88    26    86   1
    89    26    87   1
    90    27    88   1
    91    28    89   1
    92    29    90   1
    93    32    91   1
    94    32    92   1
    95    33    93   1
    96    33    94   1
    97    34    95   1
    98    34    96   1
    99    35    97   1
   100    35    98   1
   101    36    99   1
   102    36   100   1
   103    36   101   1
   104    39   102   1
   105    39   103   1
   106    40   104   1
   107    40   105   1
   108    41   106   1
   109    41   107   1
   110    42   108   1
   111    42   109   1
   112    43   110   1
   113    43   111   1
   114    44   112   1
   115    45   113   1
   116    46   114   1
   117    47   115   1
   118    47   116   1
   119    48   117   1
   120    48   118   1
   121    49   119   1
   122    49   120   1
   123    50   121   1
   124    52   122   1
   125    52   123   1
   126    53   124   1
   127    53   125   1
   128    56   126   1
   129    57   127   1
   130    58   128   1
   131    58   129   1
   132    59   130   1
   133    59   131   1
   134    60   132   1
   135    60   133   1
   136    61   134   1
   137    63   135   1
   138    63   136   1
   139    64   137   1
   140    64   138   1
   141    67   139   1
   142    67   140   1
@<TRIPOS>SUBSTRUCTURE
     1  A02      2

