@<TRIPOS>MOLECULE
3ag9_ligand_057
   140   142
SMALL
GAST_HUCK
****
This file was generated by PARSER (from files_GN.cpp)

@<TRIPOS>ATOM
      1 N1          5.3295   11.6470    8.1390 N.ar        1 A02      -0.2698
      2 C2          5.7880   12.0599    9.3533 C.ar        1 A02       0.0533
      3 N3          5.2583   11.5457   10.4960 N.ar        1 A02      -0.2714
      4 C4          4.2693   10.6150   10.4252 C.ar        1 A02       0.1613
      5 C5          3.7913   10.1795    9.1954 C.ar        1 A02       0.1045
      6 C6          4.3414   10.7219    8.0200 C.ar        1 A02       0.1298
      7 N6          3.9133   10.3411    6.8035 N.pl3       1 A02      -0.3152
      8 N7          2.8460    9.2540    9.4040 N.2         1 A02      -0.2958
      9 C8          2.7418    9.1245   10.7407 C.2         1 A02       0.1123
     10 N9          3.5930    9.9517   11.3812 N.pl3       1 A02      -0.1918
     11 OAL         3.4176    6.2566   14.7887 O.2         1 A02      -0.3941
     12 OAN         1.7782    9.0119   15.6944 O.3         1 A02      -0.3840
     13 OAO         2.3990   11.3331   14.4327 O.3         1 A02      -0.3834
     14 OBV         4.4505    8.8989   13.2748 O.3         1 A02      -0.3181
     15 CCC         4.2587    7.1456   14.8178 C.2         1 A02       0.2080
     16 CCK         2.3984    8.8696   14.4175 C.3         1 A02       0.1295
     17 CCL         2.4276   10.1718   13.5958 C.3         1 A02       0.1408
     18 CCM         3.8964    8.5273   14.5419 C.3         1 A02       0.1788
     19 CCN         3.7614   10.0677   12.8062 C.3         1 A02       0.2035
     20 CBZ         9.7549    3.7214   11.3662 C.2         1 A02       0.1782
     21 OAI        10.3097    3.9572   10.2987 O.2         1 A02      -0.3969
     22 CBG         8.3267    3.9666   11.4616 C.3         1 A02       0.0374
     23 CAX         8.0038    5.4850   11.6577 C.3         1 A02      -0.0360
     24 CAU         6.8786    5.7631   12.6882 C.3         1 A02      -0.0492
     25 CAW         7.3051    5.4627   14.1556 C.3         1 A02      -0.0326
     26 CBD         6.1450    5.5903   15.1709 C.3         1 A02       0.0310
     27 NBR         5.5343    6.8797   15.0587 N.am        1 A02      -0.2847
     28 NBS        10.4450    3.3839   12.4545 N.am        1 A02      -0.2656
     29 CCI        11.8785    3.3129   12.5473 C.3         1 A02       0.1308
     30 CCB        12.4146    4.6250   12.9070 C.2         1 A02       0.2016
     31 OAK        11.9271    5.2537   13.8401 O.2         1 A02      -0.3945
     32 CBJ        12.3912    2.1590   13.4731 C.3         1 A02      -0.0122
     33 CAZ        12.5405    2.4400   15.0047 C.3         1 A02      -0.0440
     34 CAS        13.5555    1.5221   15.7423 C.3         1 A02      -0.0124
     35 CAR        14.9828    1.5439   15.1217 C.3         1 A02      -0.0354
     36 NAC        16.0049    0.9991   16.0220 N.4         1 A02       0.2185
     37 CCA        17.9335    7.9099    8.4623 C.2         1 A02       0.1782
     38 OAJ        17.9470    8.7058    7.5249 O.2         1 A02      -0.3969
     39 CBH        17.0040    8.1171    9.5562 C.3         1 A02       0.0374
     40 CAY        15.6113    7.5205    9.1913 C.3         1 A02      -0.0360
     41 CAT        14.6590    7.3512   10.4010 C.3         1 A02      -0.0492
     42 CAV        15.2989    6.5533   11.5773 C.3         1 A02      -0.0326
     43 CBC        14.2768    6.1946   12.6782 C.3         1 A02       0.0310
     44 NBQ        13.4950    5.0648   12.2828 N.am        1 A02      -0.2851
     45 NBT        18.6621    6.7883    8.4479 N.am        1 A02      -0.2656
     46 CCJ        19.4567    6.2892    7.3651 C.3         1 A02       0.1310
     47 CBK        20.3159    5.0639    7.8280 C.3         1 A02      -0.0092
     48 CBB        19.5237    3.9240    8.5564 C.3         1 A02      -0.0156
     49 CBF        19.6686    2.5310    7.8855 C.3         1 A02       0.0627
     50 NBP        18.9531    1.5187    8.5468 N.pl3       1 A02      -0.2723
     51 CBX        19.2586    0.9346    9.6449 C.cat       1 A02       0.2882
     52 NAB        20.2929    1.1780   10.3474 N.pl3       1 A02      -0.2849
     53 NAE        18.4734    0.0305   10.0928 N.pl3       1 A02      -0.2849
     54 CCD        20.2767    7.3670    6.8027 C.2         1 A02       0.2039
     55 OAM        21.1453    7.8737    7.5024 O.2         1 A02      -0.3944
     56 N          20.0035    7.8365    5.5840 N.am        1 A02      -0.2637
     57 CA         20.5705    8.9567    4.8711 C.3         1 A02       0.1307
     58 CB         21.6437    8.5518    3.8022 C.3         1 A02      -0.0092
     59 CG         22.8546    7.6915    4.2772 C.3         1 A02      -0.0156
     60 CD         22.5490    6.1698    4.3720 C.3         1 A02       0.0627
     61 NE         23.6153    5.4938    4.9782 N.pl3       1 A02      -0.2723
     62 CZ         23.6329    4.2724    5.3627 C.cat       1 A02       0.2882
     63 NH1        22.6420    3.4644    5.2812 N.pl3       1 A02      -0.2849
     64 NH2        24.7152    3.8399    5.8863 N.pl3       1 A02      -0.2849
     65 C          20.9575   10.0981    5.7100 C.2         1 A02       0.1992
     66 O          22.0207   10.1124    6.3090 O.2         1 A02      -0.3947
     67 NAF        20.1801   11.1512    5.8547 N.am        1 A02      -0.2990
     68 H1          6.5357   12.7531    9.4059 H           1 A02       0.0996
     69 H2          3.2069    9.6813    6.7204 H           1 A02       0.1820
     70 H3          4.3092   10.7288    6.0069 H           1 A02       0.1820
     71 H4          2.0925    8.4761   11.1923 H           1 A02       0.1349
     72 H5          0.8140    9.0455   15.5061 H           1 A02       0.2102
     73 H6          3.1712   11.2476   15.0312 H           1 A02       0.2101
     74 H7          1.8722    8.0965   13.8483 H           1 A02       0.0673
     75 H8          1.5569   10.2225   12.9365 H           1 A02       0.0678
     76 H9          4.3335    9.1587   15.3230 H           1 A02       0.0869
     77 H10         4.3940   10.9302   13.0426 H           1 A02       0.0998
     78 H11         7.9087    3.3673   12.2788 H           1 A02       0.0502
     79 H12         7.8496    3.6094   10.5457 H           1 A02       0.0502
     80 H13         7.7044    5.9004   10.6903 H           1 A02       0.0290
     81 H14         8.8916    6.0453   11.9725 H           1 A02       0.0290
     82 H15         5.9970    5.1709   12.4292 H           1 A02       0.0267
     83 H16         6.6034    6.8181   12.6102 H           1 A02       0.0267
     84 H17         8.1058    6.1509   14.4438 H           1 A02       0.0285
     85 H18         7.7004    4.4467   14.2253 H           1 A02       0.0285
     86 H19         6.5449    5.4947   16.1832 H           1 A02       0.0520
     87 H20         5.4361    4.7718   15.0133 H           1 A02       0.0520
     88 H21         6.1366    7.6399   15.1177 H           1 A02       0.1851
     89 H22         9.9542    3.2853   13.2888 H           1 A02       0.1883
     90 H23        12.2532    3.0548   11.5461 H           1 A02       0.0800
     91 H24        13.3728    1.8634   13.0885 H           1 A02       0.0312
     92 H25        11.7360    1.2898   13.3541 H           1 A02       0.0312
     93 H26        11.5572    2.3370   15.4743 H           1 A02       0.0269
     94 H27        12.8800    3.4646   15.1768 H           1 A02       0.0269
     95 H28        13.1821    0.4920   15.7477 H           1 A02       0.0317
     96 H29        13.6231    1.8678   16.7809 H           1 A02       0.0317
     97 H30        15.2743    2.5689   14.8655 H           1 A02       0.0813
     98 H31        14.9851    0.9375   14.2172 H           1 A02       0.0813
     99 H32        16.8898    0.9334   15.5094 H           1 A02       0.1994
    100 H33        15.7251    0.0678   16.3372 H           1 A02       0.1994
    101 H34        16.1182    1.6204   16.8266 H           1 A02       0.1994
    102 H35        16.8852    9.1893    9.7632 H           1 A02       0.0502
    103 H36        17.3971    7.6445   10.4674 H           1 A02       0.0502
    104 H37        15.7328    6.5352    8.7235 H           1 A02       0.0290
    105 H38        15.1244    8.1788    8.4596 H           1 A02       0.0290
    106 H39        13.7683    6.8231   10.0404 H           1 A02       0.0267
    107 H40        14.3415    8.3366   10.7598 H           1 A02       0.0267
    108 H41        16.0875    7.1589   12.0312 H           1 A02       0.0285
    109 H42        15.7569    5.6287   11.2062 H           1 A02       0.0285
    110 H43        13.6455    7.0642   12.8849 H           1 A02       0.0520
    111 H44        14.8246    5.9314   13.5857 H           1 A02       0.0520
    112 H45        13.8322    4.5371   11.5349 H           1 A02       0.1851
    113 H46        18.5821    6.2075    9.2254 H           1 A02       0.1883
    114 H47        18.7655    5.9150    6.5999 H           1 A02       0.0800
    115 H48        21.1065    5.4121    8.5015 H           1 A02       0.0313
    116 H49        20.8173    4.6553    6.9431 H           1 A02       0.0313
    117 H50        18.4567    4.1668    8.5958 H           1 A02       0.0301
    118 H51        19.8742    3.8584    9.5905 H           1 A02       0.0301
    119 H52        20.7229    2.2528    7.7950 H           1 A02       0.0689
    120 H53        19.2631    2.6089    6.8715 H           1 A02       0.0689
    121 H54        18.1680    1.2290    8.1247 H           1 A02       0.2642
    122 H55        20.4289    0.6969   11.1412 H           1 A02       0.2615
    123 H56        20.9139    1.8285   10.0825 H           1 A02       0.2615
    124 H57        17.6937   -0.1990    9.6288 H           1 A02       0.2615
    125 H58        18.6758   -0.3866   10.9087 H           1 A02       0.2615
    126 H59        19.2606    7.4048    5.1226 H           1 A02       0.1883
    127 H60        19.7295    9.3138    4.2651 H           1 A02       0.0800
    128 H61        22.0393    9.4736    3.3599 H           1 A02       0.0313
    129 H62        21.1357    8.0190    2.9890 H           1 A02       0.0313
    130 H63        23.2126    8.0542    5.2495 H           1 A02       0.0301
    131 H64        23.6686    7.8220    3.5553 H           1 A02       0.0301
    132 H65        22.3949    5.7589    3.3632 H           1 A02       0.0689
    133 H66        21.6319    6.0215    4.9592 H           1 A02       0.0689
    134 H67        24.4027    5.9826    5.1333 H           1 A02       0.2642
    135 H68        22.7246    2.5913    5.5977 H           1 A02       0.2615
    136 H69        21.8342    3.7411    4.9093 H           1 A02       0.2615
    137 H70        25.4474    4.4121    5.9677 H           1 A02       0.2615
    138 H71        24.7800    2.9620    6.1940 H           1 A02       0.2615
    139 H72        20.4624   11.8825    6.4295 H           1 A02       0.1815
    140 H73        19.3199   11.1988    5.4060 H           1 A02       0.1815
@<TRIPOS>BOND
     1     2     1  ar
     2     6     1  ar
     3     3     2  ar
     4     4     3  ar
     5     4     5  ar
     6    10     4   1
     7     5     6  ar
     8     8     5   1
     9     6     7   1
    10     9     8   2
    11    10     9   1
    12    19    10   1
    13    15    11   2
    14    16    12   1
    15    17    13   1
    16    18    14   1
    17    14    19   1
    18    15    18   1
    19    27    15  am
    20    16    17   1
    21    18    16   1
    22    17    19   1
    23    20    21   2
    24    20    22   1
    25    28    20  am
    26    22    23   1
    27    23    24   1
    28    24    25   1
    29    25    26   1
    30    26    27   1
    31    29    28   1
    32    30    29   1
    33    29    32   1
    34    30    31   2
    35    44    30  am
    36    32    33   1
    37    33    34   1
    38    34    35   1
    39    35    36   1
    40    37    38   2
    41    39    37   1
    42    37    45  am
    43    40    39   1
    44    41    40   1
    45    42    41   1
    46    43    42   1
    47    43    44   1
    48    45    46   1
    49    46    47   1
    50    46    54   1
    51    47    48   1
    52    48    49   1
    53    49    50   1
    54    50    51  ar
    55    51    52  ar
    56    51    53  ar
    57    54    55   2
    58    54    56  am
    59    56    57   1
    60    57    58   1
    61    57    65   1
    62    58    59   1
    63    59    60   1
    64    60    61   1
    65    61    62  ar
    66    62    63  ar
    67    62    64  ar
    68    65    66   2
    69    65    67  am
    70     2    68   1
    71     7    69   1
    72     7    70   1
    73     9    71   1
    74    12    72   1
    75    13    73   1
    76    16    74   1
    77    17    75   1
    78    18    76   1
    79    19    77   1
    80    22    78   1
    81    22    79   1
    82    23    80   1
    83    23    81   1
    84    24    82   1
    85    24    83   1
    86    25    84   1
    87    25    85   1
    88    26    86   1
    89    26    87   1
    90    27    88   1
    91    28    89   1
    92    29    90   1
    93    32    91   1
    94    32    92   1
    95    33    93   1
    96    33    94   1
    97    34    95   1
    98    34    96   1
    99    35    97   1
   100    35    98   1
   101    36    99   1
   102    36   100   1
   103    36   101   1
   104    39   102   1
   105    39   103   1
   106    40   104   1
   107    40   105   1
   108    41   106   1
   109    41   107   1
   110    42   108   1
   111    42   109   1
   112    43   110   1
   113    43   111   1
   114    44   112   1
   115    45   113   1
   116    46   114   1
   117    47   115   1
   118    47   116   1
   119    48   117   1
   120    48   118   1
   121    49   119   1
   122    49   120   1
   123    50   121   1
   124    52   122   1
   125    52   123   1
   126    53   124   1
   127    53   125   1
   128    56   126   1
   129    57   127   1
   130    58   128   1
   131    58   129   1
   132    59   130   1
   133    59   131   1
   134    60   132   1
   135    60   133   1
   136    61   134   1
   137    63   135   1
   138    63   136   1
   139    64   137   1
   140    64   138   1
   141    67   139   1
   142    67   140   1
@<TRIPOS>SUBSTRUCTURE
     1  A02      2

