@<TRIPOS>MOLECULE
3ag9_ligand_098
   140   142
SMALL
GAST_HUCK
****
This file was generated by PARSER (from files_GN.cpp)

@<TRIPOS>ATOM
      1 N1          5.4269    8.1896   13.8036 N.ar        1 A02      -0.2698
      2 C2          6.5467    8.5691   14.4776 C.ar        1 A02       0.0533
      3 N3          7.2668    7.6567   15.1780 N.ar        1 A02      -0.2714
      4 C4          6.8700    6.3563   15.2094 C.ar        1 A02       0.1613
      5 C5          5.7323    5.9427   14.5196 C.ar        1 A02       0.1045
      6 C6          4.9871    6.8993   13.8000 C.ar        1 A02       0.1298
      7 N6          3.8633    6.5858   13.1224 N.pl3       1 A02      -0.3152
      8 N7          5.5969    4.6221   14.7040 N.2         1 A02      -0.2958
      9 C8          6.6249    4.2366   15.4932 C.2         1 A02       0.1123
     10 N9          7.4139    5.2873   15.8174 N.pl3       1 A02      -0.1918
     11 OAL        12.2383    5.3453   13.9796 O.2         1 A02      -0.3941
     12 OAN        11.2023    2.7172   16.7683 O.3         1 A02      -0.3840
     13 OAO         9.8254    4.3547   18.4913 O.3         1 A02      -0.3834
     14 OBV         9.6427    5.8173   15.7156 O.3         1 A02      -0.3181
     15 CCC        11.1717    4.7991   14.2373 C.2         1 A02       0.2080
     16 CCK        10.1668    3.5243   16.2160 C.3         1 A02       0.1295
     17 CCL         9.1603    4.0453   17.2544 C.3         1 A02       0.1408
     18 CCM        10.6945    4.8478   15.6148 C.3         1 A02       0.1788
     19 CCN         8.6200    5.3461   16.6012 C.3         1 A02       0.2035
     20 CBZ        10.7296    5.9358    6.7186 C.2         1 A02       0.1782
     21 OAI        11.6197    6.7773    6.7182 O.2         1 A02      -0.3969
     22 CBG        11.0405    4.6220    7.2482 C.3         1 A02       0.0374
     23 CAX        11.1041    4.6018    8.8087 C.3         1 A02      -0.0360
     24 CAU         9.7425    4.2606    9.4826 C.3         1 A02      -0.0492
     25 CAW         9.6193    4.6119   10.9955 C.3         1 A02      -0.0326
     26 CBD        10.7776    4.1057   11.8955 C.3         1 A02       0.0310
     27 NBR        10.4363    4.2351   13.2850 N.am        1 A02      -0.2847
     28 NBS         9.4980    6.2636    6.3390 N.am        1 A02      -0.2656
     29 CCI         9.0729    7.5747    5.9097 C.3         1 A02       0.1308
     30 CCB         9.6216    7.8804    4.5857 C.2         1 A02       0.2016
     31 OAK         9.3304    7.1530    3.6439 O.2         1 A02      -0.3945
     32 CBJ         7.5204    7.7429    6.0295 C.3         1 A02      -0.0122
     33 CAZ         6.5882    7.2605    4.8784 C.3         1 A02      -0.0440
     34 CAS         6.6214    5.7348    4.5907 C.3         1 A02      -0.0124
     35 CAR         5.8117    5.3744    3.3180 C.3         1 A02      -0.0354
     36 NAC         5.9545    3.9525    2.9817 N.4         1 A02       0.2185
     37 CCA        14.9515    5.7363    5.5116 C.2         1 A02       0.1782
     38 OAJ        14.5340    6.5430    6.3308 O.2         1 A02      -0.3969
     39 CBH        14.2386    5.6108    4.2508 C.3         1 A02       0.0374
     40 CAY        14.4578    6.8389    3.3121 C.3         1 A02      -0.0360
     41 CAT        13.5584    8.0858    3.5969 C.3         1 A02      -0.0492
     42 CAV        12.2288    8.0942    2.7863 C.3         1 A02      -0.0326
     43 CBC        11.2126    9.1875    3.2290 C.3         1 A02       0.0310
     44 NBQ        10.5111    8.8617    4.4382 N.am        1 A02      -0.2851
     45 NBT        16.1374    5.1483    5.6741 N.am        1 A02      -0.2656
     46 CCJ        17.1366    5.5552    6.6321 C.3         1 A02       0.1310
     47 CBK        17.7652    6.9178    6.1689 C.3         1 A02      -0.0092
     48 CBB        18.3380    7.8243    7.2897 C.3         1 A02      -0.0156
     49 CBF        19.6469    7.3130    7.9562 C.3         1 A02       0.0627
     50 NBP        20.5655    8.3354    8.2293 N.pl3       1 A02      -0.2723
     51 CBX        21.2817    8.9746    7.3807 C.cat       1 A02       0.2882
     52 NAB        21.2699    8.7634    6.1175 N.pl3       1 A02      -0.2849
     53 NAE        22.0662    9.8781    7.8188 N.pl3       1 A02      -0.2849
     54 CCD        18.1388    4.5018    6.8010 C.2         1 A02       0.2039
     55 OAM        18.7249    4.0740    5.8137 O.2         1 A02      -0.3944
     56 N          18.4639    4.0726    8.0210 N.am        1 A02      -0.2637
     57 CA         19.4780    3.1190    8.3874 C.3         1 A02       0.1307
     58 CB         18.9590    2.2773    9.6099 C.3         1 A02      -0.0092
     59 CG         19.9945    1.5991   10.5632 C.3         1 A02      -0.0156
     60 CD         20.3925    0.1227   10.2737 C.3         1 A02       0.0627
     61 NE         20.8732   -0.1980    9.0073 N.pl3       1 A02      -0.2723
     62 CZ         21.9259    0.2410    8.4213 C.cat       1 A02       0.2882
     63 NH1        22.7215    1.1476    8.8596 N.pl3       1 A02      -0.2849
     64 NH2        22.2181   -0.2626    7.2907 N.pl3       1 A02      -0.2849
     65 C          20.6947    3.8780    8.6444 C.2         1 A02       0.1992
     66 O          21.6324    3.8277    7.8579 O.2         1 A02      -0.3947
     67 NAF        20.8198    4.6594    9.6907 N.am        1 A02      -0.2990
     68 H1          6.8523    9.5413   14.4557 H           1 A02       0.0996
     69 H2          3.5372    5.6731   13.1029 H           1 A02       0.1820
     70 H3          3.3784    7.2834   12.6515 H           1 A02       0.1820
     71 H4          6.7824    3.2699   15.7780 H           1 A02       0.1349
     72 H5         11.6620    3.2817   17.4199 H           1 A02       0.2102
     73 H6          9.9862    3.4808   18.9285 H           1 A02       0.2101
     74 H7          9.6348    2.9271   15.4706 H           1 A02       0.0673
     75 H8          8.3703    3.3147   17.4649 H           1 A02       0.0678
     76 H9         11.5022    5.2137   16.2705 H           1 A02       0.0869
     77 H10         8.4649    6.0898   17.3888 H           1 A02       0.0998
     78 H11        12.0064    4.3183    6.8414 H           1 A02       0.0502
     79 H12        10.3121    3.8892    6.8952 H           1 A02       0.0502
     80 H13        11.4714    5.5620    9.1878 H           1 A02       0.0290
     81 H14        11.8345    3.8435    9.1106 H           1 A02       0.0290
     82 H15         9.5552    3.1900    9.3553 H           1 A02       0.0267
     83 H16         8.9439    4.7964    8.9639 H           1 A02       0.0267
     84 H17         8.6782    4.1743   11.3558 H           1 A02       0.0285
     85 H18         9.5332    5.7000   11.1080 H           1 A02       0.0285
     86 H19        11.6872    4.6554   11.6353 H           1 A02       0.0520
     87 H20        10.9554    3.0496   11.6860 H           1 A02       0.0520
     88 H21         9.5980    3.8263   13.5523 H           1 A02       0.1851
     89 H22         8.8120    5.5765    6.4214 H           1 A02       0.1883
     90 H23         9.4829    8.2809    6.6455 H           1 A02       0.0800
     91 H24         7.3200    8.8125    6.1519 H           1 A02       0.0312
     92 H25         7.1868    7.2647    6.9549 H           1 A02       0.0312
     93 H26         6.8302    7.8212    3.9708 H           1 A02       0.0269
     94 H27         5.5571    7.5385    5.1416 H           1 A02       0.0269
     95 H28         6.1997    5.1984    5.4483 H           1 A02       0.0317
     96 H29         7.6568    5.4252    4.4360 H           1 A02       0.0317
     97 H30         6.1675    5.9574    2.4583 H           1 A02       0.0813
     98 H31         4.7477    5.5911    3.4690 H           1 A02       0.0813
     99 H32         5.4074    3.7462    2.1410 H           1 A02       0.1994
    100 H33         5.6141    3.3769    3.7564 H           1 A02       0.1994
    101 H34         6.9382    3.7353    2.8041 H           1 A02       0.1994
    102 H35        13.1666    5.4637    4.4346 H           1 A02       0.0502
    103 H36        14.5908    4.7173    3.7211 H           1 A02       0.0502
    104 H37        14.2853    6.5192    2.2819 H           1 A02       0.0290
    105 H38        15.5044    7.1405    3.3633 H           1 A02       0.0290
    106 H39        14.1176    8.9907    3.3284 H           1 A02       0.0267
    107 H40        13.3342    8.1584    4.6650 H           1 A02       0.0267
    108 H41        11.7677    7.1098    2.8606 H           1 A02       0.0285
    109 H42        12.4732    8.2597    1.7344 H           1 A02       0.0285
    110 H43        10.4862    9.3583    2.4312 H           1 A02       0.0520
    111 H44        11.7451   10.1295    3.3919 H           1 A02       0.0520
    112 H45        10.7010    9.4205    5.2133 H           1 A02       0.1851
    113 H46        16.4156    4.5171    4.9933 H           1 A02       0.1883
    114 H47        16.6351    5.7184    7.5943 H           1 A02       0.0800
    115 H48        16.9946    7.5175    5.6785 H           1 A02       0.0313
    116 H49        18.5381    6.7472    5.4119 H           1 A02       0.0313
    117 H50        17.5730    7.9692    8.0583 H           1 A02       0.0301
    118 H51        18.5149    8.8049    6.8430 H           1 A02       0.0301
    119 H52        20.1366    6.5553    7.3404 H           1 A02       0.0689
    120 H53        19.3837    6.8405    8.9052 H           1 A02       0.0689
    121 H54        20.6809    8.5642    9.1315 H           1 A02       0.2642
    122 H55        21.8216    9.2655    5.5537 H           1 A02       0.2615
    123 H56        20.7106    8.1082    5.7534 H           1 A02       0.2615
    124 H57        22.1023   10.0654    8.7341 H           1 A02       0.2615
    125 H58        22.6076   10.3593    7.2271 H           1 A02       0.2615
    126 H59        18.0510    4.5414    8.7615 H           1 A02       0.1883
    127 H60        19.6531    2.4175    7.5566 H           1 A02       0.0800
    128 H61        18.2679    1.5159    9.2371 H           1 A02       0.0313
    129 H62        18.3643    2.9493   10.2387 H           1 A02       0.0313
    130 H63        19.5538    1.6021   11.5674 H           1 A02       0.0301
    131 H64        20.8916    2.2108   10.6321 H           1 A02       0.0301
    132 H65        19.5070   -0.4990   10.4544 H           1 A02       0.0689
    133 H66        21.1516   -0.1727   11.0117 H           1 A02       0.0689
    134 H67        20.3946   -0.8549    8.5513 H           1 A02       0.2642
    135 H68        23.4524    1.3988    8.3370 H           1 A02       0.2615
    136 H69        22.5834    1.5450    9.6880 H           1 A02       0.2615
    137 H70        21.6914   -0.9397    6.9223 H           1 A02       0.2615
    138 H71        22.9754    0.0334    6.8398 H           1 A02       0.2615
    139 H72        21.6399    5.1476    9.8319 H           1 A02       0.1815
    140 H73        20.1010    4.7216   10.3255 H           1 A02       0.1815
@<TRIPOS>BOND
     1     2     1  ar
     2     6     1  ar
     3     3     2  ar
     4     4     3  ar
     5     4     5  ar
     6    10     4   1
     7     5     6  ar
     8     8     5   1
     9     6     7   1
    10     9     8   2
    11    10     9   1
    12    19    10   1
    13    15    11   2
    14    16    12   1
    15    17    13   1
    16    18    14   1
    17    14    19   1
    18    15    18   1
    19    27    15  am
    20    16    17   1
    21    18    16   1
    22    17    19   1
    23    20    21   2
    24    20    22   1
    25    28    20  am
    26    22    23   1
    27    23    24   1
    28    24    25   1
    29    25    26   1
    30    26    27   1
    31    29    28   1
    32    30    29   1
    33    29    32   1
    34    30    31   2
    35    44    30  am
    36    32    33   1
    37    33    34   1
    38    34    35   1
    39    35    36   1
    40    37    38   2
    41    39    37   1
    42    37    45  am
    43    40    39   1
    44    41    40   1
    45    42    41   1
    46    43    42   1
    47    43    44   1
    48    45    46   1
    49    46    47   1
    50    46    54   1
    51    47    48   1
    52    48    49   1
    53    49    50   1
    54    50    51  ar
    55    51    52  ar
    56    51    53  ar
    57    54    55   2
    58    54    56  am
    59    56    57   1
    60    57    58   1
    61    57    65   1
    62    58    59   1
    63    59    60   1
    64    60    61   1
    65    61    62  ar
    66    62    63  ar
    67    62    64  ar
    68    65    66   2
    69    65    67  am
    70     2    68   1
    71     7    69   1
    72     7    70   1
    73     9    71   1
    74    12    72   1
    75    13    73   1
    76    16    74   1
    77    17    75   1
    78    18    76   1
    79    19    77   1
    80    22    78   1
    81    22    79   1
    82    23    80   1
    83    23    81   1
    84    24    82   1
    85    24    83   1
    86    25    84   1
    87    25    85   1
    88    26    86   1
    89    26    87   1
    90    27    88   1
    91    28    89   1
    92    29    90   1
    93    32    91   1
    94    32    92   1
    95    33    93   1
    96    33    94   1
    97    34    95   1
    98    34    96   1
    99    35    97   1
   100    35    98   1
   101    36    99   1
   102    36   100   1
   103    36   101   1
   104    39   102   1
   105    39   103   1
   106    40   104   1
   107    40   105   1
   108    41   106   1
   109    41   107   1
   110    42   108   1
   111    42   109   1
   112    43   110   1
   113    43   111   1
   114    44   112   1
   115    45   113   1
   116    46   114   1
   117    47   115   1
   118    47   116   1
   119    48   117   1
   120    48   118   1
   121    49   119   1
   122    49   120   1
   123    50   121   1
   124    52   122   1
   125    52   123   1
   126    53   124   1
   127    53   125   1
   128    56   126   1
   129    57   127   1
   130    58   128   1
   131    58   129   1
   132    59   130   1
   133    59   131   1
   134    60   132   1
   135    60   133   1
   136    61   134   1
   137    63   135   1
   138    63   136   1
   139    64   137   1
   140    64   138   1
   141    67   139   1
   142    67   140   1
@<TRIPOS>SUBSTRUCTURE
     1  A02      2

