@<TRIPOS>MOLECULE
3ag9_ligand_020
   140   142
SMALL
GAST_HUCK
****
This file was generated by PARSER (from files_GN.cpp)

@<TRIPOS>ATOM
      1 N1         15.8097    3.8891    3.9336 N.ar        1 A02      -0.2698
      2 C2         14.7922    4.7446    4.2233 C.ar        1 A02       0.0533
      3 N3         13.9786    4.5016    5.2856 N.ar        1 A02      -0.2714
      4 C4         14.1781    3.4000    6.0534 C.ar        1 A02       0.1613
      5 C5         15.2181    2.5182    5.7771 C.ar        1 A02       0.1045
      6 C6         16.0626    2.7804    4.6865 C.ar        1 A02       0.1298
      7 N6         17.0782    1.9659    4.3676 N.pl3       1 A02      -0.3152
      8 N7         15.1786    1.5165    6.6656 N.2         1 A02      -0.2958
      9 C8         14.1352    1.7799    7.4749 C.2         1 A02       0.1123
     10 N9         13.5085    2.9283    7.1234 N.pl3       1 A02      -0.1918
     11 OAL        13.6218    4.5164   10.8263 O.2         1 A02      -0.3941
     12 OAN         9.6984    4.3168    9.0504 O.3         1 A02      -0.3840
     13 OAO        10.7537    1.8497    8.4616 O.3         1 A02      -0.3834
     14 OBV        12.7346    4.8681    8.1942 O.3         1 A02      -0.3181
     15 CCC        12.9114    5.4409   10.4500 C.2         1 A02       0.2080
     16 CCK        10.9812    4.0280    9.6175 C.3         1 A02       0.1295
     17 CCL        11.6645    2.8605    8.8891 C.3         1 A02       0.1408
     18 CCM        11.9691    5.1971    9.3676 C.3         1 A02       0.1788
     19 CCN        12.3592    3.5701    7.7072 C.3         1 A02       0.2035
     20 CBZ        17.3644    5.3300    7.2199 C.2         1 A02       0.1782
     21 OAI        17.3070    5.4435    6.0032 O.2         1 A02      -0.3969
     22 CBG        16.3028    5.8688    8.0406 C.3         1 A02       0.0374
     23 CAX        16.7227    7.1980    8.7302 C.3         1 A02      -0.0360
     24 CAU        15.6518    7.7578    9.7017 C.3         1 A02      -0.0492
     25 CAW        15.5560    6.9955   11.0606 C.3         1 A02      -0.0326
     26 CBD        14.1663    7.1102   11.7510 C.3         1 A02       0.0310
     27 NBR        13.0887    6.6710   10.9176 N.am        1 A02      -0.2847
     28 NBS        18.4077    4.7588    7.8126 N.am        1 A02      -0.2656
     29 CCI        19.5259    4.1384    7.1479 C.3         1 A02       0.1308
     30 CCB        20.3004    5.1038    6.3672 C.2         1 A02       0.2016
     31 OAK        20.6288    4.8226    5.2232 O.2         1 A02      -0.3945
     32 CBJ        20.4204    3.3540    8.1597 C.3         1 A02      -0.0122
     33 CAZ        19.6111    2.3566    9.0450 C.3         1 A02      -0.0440
     34 CAS        20.4651    1.3469    9.8696 C.3         1 A02      -0.0124
     35 CAR        20.4441   -0.0971    9.3073 C.3         1 A02      -0.0354
     36 NAC        21.0432   -1.0457   10.2537 N.4         1 A02       0.2185
     37 CCA        19.3119   12.1076    4.2930 C.2         1 A02       0.1782
     38 OAJ        19.0467   11.4856    3.2706 O.2         1 A02      -0.3969
     39 CBH        19.8047   11.3614    5.4428 C.3         1 A02       0.0374
     40 CAY        21.1614   10.6432    5.1834 C.3         1 A02      -0.0360
     41 CAT        21.7772    9.9408    6.4266 C.3         1 A02      -0.0492
     42 CAV        21.0104    8.7201    7.0062 C.3         1 A02      -0.0326
     43 CBC        21.0556    7.4401    6.1260 C.3         1 A02       0.0310
     44 NBQ        20.4986    6.3311    6.8405 N.am        1 A02      -0.2851
     45 NBT        19.1065   13.4241    4.3631 N.am        1 A02      -0.2656
     46 CCJ        18.5485   14.2704    3.3374 C.3         1 A02       0.1310
     47 CBK        19.0943   15.7413    3.4394 C.3         1 A02      -0.0092
     48 CBB        19.9789   16.2411    2.2680 C.3         1 A02      -0.0156
     49 CBF        21.3155   15.4784    2.0803 C.3         1 A02       0.0627
     50 NBP        22.1595   16.1121    1.1559 N.pl3       1 A02      -0.2723
     51 CBX        22.8464   17.1785    1.3242 C.cat       1 A02       0.2882
     52 NAB        22.8943   17.8565    2.4042 N.pl3       1 A02      -0.2849
     53 NAE        23.5458   17.5979    0.3425 N.pl3       1 A02      -0.2849
     54 CCD        17.0885   14.2142    3.4193 C.2         1 A02       0.2039
     55 OAM        16.4659   13.7505    2.4678 O.2         1 A02      -0.3944
     56 N          16.4433   14.7244    4.4703 N.am        1 A02      -0.2637
     57 CA         15.0240   14.9250    4.5756 C.3         1 A02       0.1307
     58 CB         14.6304   16.1550    5.4556 C.3         1 A02      -0.0092
     59 CG         15.3156   17.5113    5.1132 C.3         1 A02      -0.0156
     60 CD         16.6705   17.8015    5.8137 C.3         1 A02       0.0627
     61 NE         16.5888   17.7499    7.2141 N.pl3       1 A02      -0.2723
     62 CZ         16.6632   18.7038    8.0646 C.cat       1 A02       0.2882
     63 NH1        16.7870   19.9424    7.7778 N.pl3       1 A02      -0.2849
     64 NH2        16.6029   18.4073    9.3008 N.pl3       1 A02      -0.2849
     65 C          14.4164   13.7003    5.0735 C.2         1 A02       0.1992
     66 O          13.6291   13.0646    4.3856 O.2         1 A02      -0.3947
     67 NAF        14.6878   13.2354    6.2775 N.am        1 A02      -0.2990
     68 H1         14.6336    5.5647    3.6394 H           1 A02       0.0996
     69 H2         17.2572    1.1746    4.9049 H           1 A02       0.1820
     70 H3         17.6109    2.1370    3.5725 H           1 A02       0.1820
     71 H4         13.8761    1.1656    8.2517 H           1 A02       0.1349
     72 H5          9.1483    3.5288    9.2516 H           1 A02       0.2102
     73 H6         11.3094    1.1750    8.0185 H           1 A02       0.2101
     74 H7         10.8452    3.8104   10.6839 H           1 A02       0.0673
     75 H8         12.3994    2.4170    9.5649 H           1 A02       0.0678
     76 H9         11.4041    6.1090    9.1503 H           1 A02       0.0869
     77 H10        11.6159    3.7159    6.9170 H           1 A02       0.0998
     78 H11        16.0271    5.1136    8.7792 H           1 A02       0.0502
     79 H12        15.4155    6.0548    7.4284 H           1 A02       0.0502
     80 H13        16.8992    7.9440    7.9503 H           1 A02       0.0290
     81 H14        17.6575    7.0681    9.2747 H           1 A02       0.0290
     82 H15        14.6904    7.7491    9.1842 H           1 A02       0.0267
     83 H16        15.8852    8.8034    9.9184 H           1 A02       0.0267
     84 H17        16.3203    7.3842   11.7404 H           1 A02       0.0285
     85 H18        15.7810    5.9360   10.9222 H           1 A02       0.0285
     86 H19        13.9891    8.1583   12.0025 H           1 A02       0.0520
     87 H20        14.1682    6.5379   12.6851 H           1 A02       0.0520
     88 H21        12.4906    7.3588   10.5863 H           1 A02       0.1851
     89 H22        18.4063    4.7468    8.7858 H           1 A02       0.1883
     90 H23        19.1135    3.3846    6.4626 H           1 A02       0.0800
     91 H24        20.9456    4.0549    8.8164 H           1 A02       0.0312
     92 H25        21.1740    2.7926    7.5993 H           1 A02       0.0312
     93 H26        18.9013    1.8163    8.4146 H           1 A02       0.0269
     94 H27        19.0182    2.9442    9.7529 H           1 A02       0.0269
     95 H28        20.0717    1.3104   10.8916 H           1 A02       0.0317
     96 H29        21.5024    1.6858    9.9365 H           1 A02       0.0317
     97 H30        20.9943   -0.1416    8.3653 H           1 A02       0.0813
     98 H31        19.4137   -0.4174    9.1286 H           1 A02       0.0813
     99 H32        20.9607   -1.9957    9.8789 H           1 A02       0.1994
    100 H33        20.5494   -0.9922   11.1498 H           1 A02       0.1994
    101 H34        22.0303   -0.8177   10.3944 H           1 A02       0.1994
    102 H35        19.0490   10.6216    5.7141 H           1 A02       0.0502
    103 H36        19.9244   12.0325    6.2977 H           1 A02       0.0502
    104 H37        21.8818   11.3934    4.8426 H           1 A02       0.0290
    105 H38        21.0431    9.9133    4.3806 H           1 A02       0.0290
    106 H39        21.8704   10.6788    7.2247 H           1 A02       0.0267
    107 H40        22.7918    9.6196    6.1786 H           1 A02       0.0267
    108 H41        19.9683    8.9903    7.1956 H           1 A02       0.0285
    109 H42        21.4571    8.4789    7.9738 H           1 A02       0.0285
    110 H43        22.0876    7.2112    5.8524 H           1 A02       0.0520
    111 H44        20.4773    7.6082    5.2125 H           1 A02       0.0520
    112 H45        20.1762    6.5128    7.7392 H           1 A02       0.1851
    113 H46        19.3169   13.8505    5.2097 H           1 A02       0.1883
    114 H47        18.8569   13.8783    2.3624 H           1 A02       0.0800
    115 H48        19.6457   15.8733    4.3740 H           1 A02       0.0313
    116 H49        18.2610   16.4481    3.4726 H           1 A02       0.0313
    117 H50        20.1964   17.2951    2.4610 H           1 A02       0.0301
    118 H51        19.4098   16.1952    1.3355 H           1 A02       0.0301
    119 H52        21.1055   14.4813    1.6915 H           1 A02       0.0689
    120 H53        21.8305   15.3545    3.0359 H           1 A02       0.0689
    121 H54        22.2304   15.7051    0.3125 H           1 A02       0.2642
    122 H55        23.4318   18.6190    2.4544 H           1 A02       0.2615
    123 H56        22.4058   17.6026    3.1585 H           1 A02       0.2615
    124 H57        23.5452   17.1354   -0.4758 H           1 A02       0.2615
    125 H58        24.0693   18.3752    0.4252 H           1 A02       0.2615
    126 H59        16.9903   15.0533    5.2002 H           1 A02       0.1883
    127 H60        14.6297   15.1422    3.5741 H           1 A02       0.0800
    128 H61        14.7859   15.9334    6.5110 H           1 A02       0.0313
    129 H62        13.5555   16.2975    5.3256 H           1 A02       0.0313
    130 H63        14.6403   18.3222    5.3970 H           1 A02       0.0301
    131 H64        15.4584   17.5760    4.0311 H           1 A02       0.0301
    132 H65        17.0473   18.7662    5.4568 H           1 A02       0.0689
    133 H66        17.4033   17.0543    5.5213 H           1 A02       0.0689
    134 H67        16.4758   16.8962    7.5809 H           1 A02       0.2642
    135 H68        16.8200   20.5670    8.4688 H           1 A02       0.2615
    136 H69        16.8264   20.2352    6.8927 H           1 A02       0.2615
    137 H70        16.5080   17.5149    9.5751 H           1 A02       0.2615
    138 H71        16.6570   19.0918    9.9399 H           1 A02       0.2615
    139 H72        14.2597   12.4269    6.5932 H           1 A02       0.1815
    140 H73        15.2875   13.7248    6.8637 H           1 A02       0.1815
@<TRIPOS>BOND
     1     2     1  ar
     2     6     1  ar
     3     3     2  ar
     4     4     3  ar
     5     4     5  ar
     6    10     4   1
     7     5     6  ar
     8     8     5   1
     9     6     7   1
    10     9     8   2
    11    10     9   1
    12    19    10   1
    13    15    11   2
    14    16    12   1
    15    17    13   1
    16    18    14   1
    17    14    19   1
    18    15    18   1
    19    27    15  am
    20    16    17   1
    21    18    16   1
    22    17    19   1
    23    20    21   2
    24    20    22   1
    25    28    20  am
    26    22    23   1
    27    23    24   1
    28    24    25   1
    29    25    26   1
    30    26    27   1
    31    29    28   1
    32    30    29   1
    33    29    32   1
    34    30    31   2
    35    44    30  am
    36    32    33   1
    37    33    34   1
    38    34    35   1
    39    35    36   1
    40    37    38   2
    41    39    37   1
    42    37    45  am
    43    40    39   1
    44    41    40   1
    45    42    41   1
    46    43    42   1
    47    43    44   1
    48    45    46   1
    49    46    47   1
    50    46    54   1
    51    47    48   1
    52    48    49   1
    53    49    50   1
    54    50    51  ar
    55    51    52  ar
    56    51    53  ar
    57    54    55   2
    58    54    56  am
    59    56    57   1
    60    57    58   1
    61    57    65   1
    62    58    59   1
    63    59    60   1
    64    60    61   1
    65    61    62  ar
    66    62    63  ar
    67    62    64  ar
    68    65    66   2
    69    65    67  am
    70     2    68   1
    71     7    69   1
    72     7    70   1
    73     9    71   1
    74    12    72   1
    75    13    73   1
    76    16    74   1
    77    17    75   1
    78    18    76   1
    79    19    77   1
    80    22    78   1
    81    22    79   1
    82    23    80   1
    83    23    81   1
    84    24    82   1
    85    24    83   1
    86    25    84   1
    87    25    85   1
    88    26    86   1
    89    26    87   1
    90    27    88   1
    91    28    89   1
    92    29    90   1
    93    32    91   1
    94    32    92   1
    95    33    93   1
    96    33    94   1
    97    34    95   1
    98    34    96   1
    99    35    97   1
   100    35    98   1
   101    36    99   1
   102    36   100   1
   103    36   101   1
   104    39   102   1
   105    39   103   1
   106    40   104   1
   107    40   105   1
   108    41   106   1
   109    41   107   1
   110    42   108   1
   111    42   109   1
   112    43   110   1
   113    43   111   1
   114    44   112   1
   115    45   113   1
   116    46   114   1
   117    47   115   1
   118    47   116   1
   119    48   117   1
   120    48   118   1
   121    49   119   1
   122    49   120   1
   123    50   121   1
   124    52   122   1
   125    52   123   1
   126    53   124   1
   127    53   125   1
   128    56   126   1
   129    57   127   1
   130    58   128   1
   131    58   129   1
   132    59   130   1
   133    59   131   1
   134    60   132   1
   135    60   133   1
   136    61   134   1
   137    63   135   1
   138    63   136   1
   139    64   137   1
   140    64   138   1
   141    67   139   1
   142    67   140   1
@<TRIPOS>SUBSTRUCTURE
     1  A02      2

