@<TRIPOS>MOLECULE
3ag9_ligand_058
   140   142
SMALL
GAST_HUCK
****
This file was generated by PARSER (from files_GN.cpp)

@<TRIPOS>ATOM
      1 N1         15.0689   12.7314    5.6792 N.ar        1 A02      -0.2698
      2 C2         16.1635   12.1552    6.2504 C.ar        1 A02       0.0533
      3 N3         16.0236   11.3452    7.3331 N.ar        1 A02      -0.2714
      4 C4         14.7896   11.1095    7.8544 C.ar        1 A02       0.1613
      5 C5         13.6599   11.6873    7.2814 C.ar        1 A02       0.1045
      6 C6         13.8123   12.5245    6.1619 C.ar        1 A02       0.1298
      7 N6         12.7577   13.1072    5.5729 N.pl3       1 A02      -0.3152
      8 N7         12.5797   11.2984    7.9715 N.2         1 A02      -0.2958
      9 C8         13.0316   10.4891    8.9485 C.2         1 A02       0.1123
     10 N9         14.3763   10.3616    8.8970 N.pl3       1 A02      -0.1918
     11 OAL        18.1171    8.6460    7.4230 O.2         1 A02      -0.3941
     12 OAN        15.6160    5.9302    9.5412 O.3         1 A02      -0.3840
     13 OAO        14.6758    7.7556   11.3937 O.3         1 A02      -0.3834
     14 OBV        16.5216    9.4541    9.3665 O.3         1 A02      -0.3181
     15 CCC        17.8590    7.7935    8.2655 C.2         1 A02       0.2080
     16 CCK        15.5623    7.3085    9.1594 C.3         1 A02       0.1295
     17 CCL        14.6086    8.1441   10.0203 C.3         1 A02       0.1408
     18 CCM        16.8981    8.0679    9.3242 C.3         1 A02       0.1788
     19 CCN        15.1606    9.5833    9.8179 C.3         1 A02       0.2035
     20 CBZ        18.4756    3.2209    5.4401 C.2         1 A02       0.1782
     21 OAI        17.2626    3.2573    5.2662 O.2         1 A02      -0.3969
     22 CBG        19.3415    3.4176    4.2977 C.3         1 A02       0.0374
     23 CAX        19.2612    4.8220    3.6409 C.3         1 A02      -0.0360
     24 CAU        19.6588    6.0194    4.5557 C.3         1 A02      -0.0492
     25 CAW        18.6835    6.3137    5.7449 C.3         1 A02      -0.0326
     26 CBD        19.3426    6.1968    7.1515 C.3         1 A02       0.0310
     27 NBR        18.4517    6.6089    8.1973 N.am        1 A02      -0.2847
     28 NBS        18.9855    3.0095    6.6531 N.am        1 A02      -0.2656
     29 CCI        18.2541    2.9097    7.8841 C.3         1 A02       0.1308
     30 CCB        17.1836    1.9181    7.8980 C.2         1 A02       0.2016
     31 OAK        17.1141    1.0545    7.0309 O.2         1 A02      -0.3945
     32 CBJ        19.2323    2.7365    9.0957 C.3         1 A02      -0.0122
     33 CAZ        19.9602    1.3765    9.2434 C.3         1 A02      -0.0440
     34 CAS        21.4505    1.3557    8.7733 C.3         1 A02      -0.0124
     35 CAR        22.1605    0.0107    9.0415 C.3         1 A02      -0.0354
     36 NAC        22.7858   -0.5113    7.8088 N.4         1 A02       0.2185
     37 CCA        10.3985    3.8905    8.5517 C.2         1 A02       0.1782
     38 OAJ         9.7040    3.0243    9.0773 O.2         1 A02      -0.3969
     39 CBH        11.1666    3.5805    7.3560 C.3         1 A02       0.0374
     40 CAY        11.5558    2.0858    7.1399 C.3         1 A02      -0.0360
     41 CAT        12.5622    1.4829    8.1530 C.3         1 A02      -0.0492
     42 CAV        14.0544    1.7574    7.8051 C.3         1 A02      -0.0326
     43 CBC        15.0250    1.2923    8.9132 C.3         1 A02       0.0310
     44 NBQ        16.2559    2.0100    8.8473 N.am        1 A02      -0.2851
     45 NBT        10.3868    5.1372    9.0194 N.am        1 A02      -0.2656
     46 CCJ         9.6795    5.6018   10.1869 C.3         1 A02       0.1310
     47 CBK         9.3021    7.1093   10.0243 C.3         1 A02      -0.0092
     48 CBB         8.2110    7.6341   11.0226 C.3         1 A02      -0.0156
     49 CBF         8.6876    8.7078   12.0340 C.3         1 A02       0.0627
     50 NBP         9.6382    8.1963   12.9193 N.pl3       1 A02      -0.2723
     51 CBX        10.8255    8.6178   13.1649 C.cat       1 A02       0.2882
     52 NAB        11.3993    9.6194   12.6089 N.pl3       1 A02      -0.2849
     53 NAE        11.5117    7.9870   14.0370 N.pl3       1 A02      -0.2849
     54 CCD        10.4781    5.3218   11.3770 C.2         1 A02       0.2039
     55 OAM        11.2224    6.1928   11.8136 O.2         1 A02      -0.3944
     56 N          10.5657    4.0731   11.8321 N.am        1 A02      -0.2637
     57 CA         11.3986    3.5618   12.8854 C.3         1 A02       0.1307
     58 CB         11.0133    4.2463   14.2355 C.3         1 A02      -0.0092
     59 CG         11.2793    3.4650   15.5580 C.3         1 A02      -0.0156
     60 CD         11.1789    1.9140   15.4796 C.3         1 A02       0.0627
     61 NE         12.2798    1.2991   14.8774 N.pl3       1 A02      -0.2723
     62 CZ         13.4857    1.2415   15.3221 C.cat       1 A02       0.2882
     63 NH1        13.8825    1.7565   16.4283 N.pl3       1 A02      -0.2849
     64 NH2        14.3601    0.6295   14.6139 N.pl3       1 A02      -0.2849
     65 C          12.8069    3.5494   12.5018 C.2         1 A02       0.1992
     66 O          13.1088    3.1557   11.3824 O.2         1 A02      -0.3947
     67 NAF        13.7827    4.0540   13.2269 N.am        1 A02      -0.2990
     68 H1         17.0915   12.3289    5.8634 H           1 A02       0.0996
     69 H2         11.8660   12.9552    5.9211 H           1 A02       0.1820
     70 H3         12.8884   13.6786    4.8012 H           1 A02       0.1820
     71 H4         12.4268   10.0469    9.6386 H           1 A02       0.1349
     72 H5         16.3721    5.8630   10.1595 H           1 A02       0.2102
     73 H6         14.0910    8.3824   11.8683 H           1 A02       0.2101
     74 H7         15.2186    7.3568    8.1193 H           1 A02       0.0673
     75 H8         13.5763    8.0378    9.6790 H           1 A02       0.0678
     76 H9         17.3580    7.8178   10.2868 H           1 A02       0.0869
     77 H10        15.1901   10.1198   10.7708 H           1 A02       0.0998
     78 H11        19.0596    2.6763    3.5461 H           1 A02       0.0502
     79 H12        20.3846    3.2204    4.5636 H           1 A02       0.0502
     80 H13        18.2603    4.9863    3.2340 H           1 A02       0.0290
     81 H14        19.9490    4.8175    2.7923 H           1 A02       0.0290
     82 H15        19.7017    6.9129    3.9235 H           1 A02       0.0267
     83 H16        20.6777    5.8608    4.9198 H           1 A02       0.0267
     84 H17        17.8223    5.6435    5.7072 H           1 A02       0.0285
     85 H18        18.2796    7.3345    5.6409 H           1 A02       0.0285
     86 H19        20.2533    6.8017    7.1897 H           1 A02       0.0520
     87 H20        19.6213    5.1535    7.3370 H           1 A02       0.0520
     88 H21        18.2816    5.9799    8.9184 H           1 A02       0.1851
     89 H22        19.9496    2.9858    6.7139 H           1 A02       0.1883
     90 H23        17.7838    3.8878    8.0101 H           1 A02       0.0800
     91 H24        18.6506    2.8999   10.0087 H           1 A02       0.0312
     92 H25        19.9693    3.5442    9.0664 H           1 A02       0.0312
     93 H26        19.4135    0.5929    8.7087 H           1 A02       0.0269
     94 H27        19.9544    1.1038   10.3040 H           1 A02       0.0269
     95 H28        21.9991    2.1539    9.2858 H           1 A02       0.0317
     96 H29        21.4780    1.5733    7.7060 H           1 A02       0.0317
     97 H30        21.4553   -0.7520    9.3837 H           1 A02       0.0813
     98 H31        22.9284    0.1300    9.8121 H           1 A02       0.0813
     99 H32        23.4256   -1.2774    8.0280 H           1 A02       0.1994
    100 H33        23.2995    0.2309    7.3362 H           1 A02       0.1994
    101 H34        22.0465   -0.8481    7.1916 H           1 A02       0.1994
    102 H35        12.0784    4.1812    7.3529 H           1 A02       0.0502
    103 H36        10.5721    3.9052    6.4990 H           1 A02       0.0502
    104 H37        11.9860    1.9818    6.1401 H           1 A02       0.0290
    105 H38        10.6467    1.4790    7.1571 H           1 A02       0.0290
    106 H39        12.4130    0.3980    8.1829 H           1 A02       0.0267
    107 H40        12.3556    1.8700    9.1548 H           1 A02       0.0267
    108 H41        14.1945    2.8320    7.6517 H           1 A02       0.0285
    109 H42        14.2976    1.2422    6.8696 H           1 A02       0.0285
    110 H43        15.1926    0.2123    8.8685 H           1 A02       0.0520
    111 H44        14.5808    1.5278    9.8832 H           1 A02       0.0520
    112 H45        16.3867    2.6960    9.5164 H           1 A02       0.1851
    113 H46        10.9024    5.7985    8.5262 H           1 A02       0.1883
    114 H47         8.7287    5.0562   10.2380 H           1 A02       0.0800
    115 H48         8.9129    7.2430    9.0070 H           1 A02       0.0313
    116 H49        10.2045    7.7244   10.0876 H           1 A02       0.0313
    117 H50         7.7669    6.7999   11.5768 H           1 A02       0.0301
    118 H51         7.3986    8.0771   10.4372 H           1 A02       0.0301
    119 H52         7.8287    9.0157   12.6347 H           1 A02       0.0689
    120 H53         9.0288    9.5902   11.4851 H           1 A02       0.0689
    121 H54         9.3634    7.4597   13.4246 H           1 A02       0.2642
    122 H55        12.2697    9.8471   12.8629 H           1 A02       0.2615
    123 H56        10.9659   10.1433   11.9748 H           1 A02       0.2615
    124 H57        11.1439    7.2569   14.4843 H           1 A02       0.2615
    125 H58        12.3776    8.2699   14.2404 H           1 A02       0.2615
    126 H59        10.0178    3.4147   11.3738 H           1 A02       0.1883
    127 H60        11.1002    2.5144   12.9937 H           1 A02       0.0800
    128 H61         9.9416    4.4643   14.2053 H           1 A02       0.0313
    129 H62        11.5326    5.2084   14.3002 H           1 A02       0.0313
    130 H63        10.5360    3.8048   16.2868 H           1 A02       0.0301
    131 H64        12.2518    3.7515   15.9558 H           1 A02       0.0301
    132 H65        10.2884    1.6492   14.9085 H           1 A02       0.0689
    133 H66        11.0352    1.5031   16.4869 H           1 A02       0.0689
    134 H67        12.1223    0.8589   14.0706 H           1 A02       0.2642
    135 H68        14.7777    1.6700   16.6871 H           1 A02       0.2615
    136 H69        13.2797    2.2022   16.9858 H           1 A02       0.2615
    137 H70        14.1044    0.2413   13.8067 H           1 A02       0.2615
    138 H71        15.2427    0.5662   14.9054 H           1 A02       0.2615
    139 H72        14.6772    4.0946   12.8593 H           1 A02       0.1815
    140 H73        13.6191    4.4040   14.1142 H           1 A02       0.1815
@<TRIPOS>BOND
     1     2     1  ar
     2     6     1  ar
     3     3     2  ar
     4     4     3  ar
     5     4     5  ar
     6    10     4   1
     7     5     6  ar
     8     8     5   1
     9     6     7   1
    10     9     8   2
    11    10     9   1
    12    19    10   1
    13    15    11   2
    14    16    12   1
    15    17    13   1
    16    18    14   1
    17    14    19   1
    18    15    18   1
    19    27    15  am
    20    16    17   1
    21    18    16   1
    22    17    19   1
    23    20    21   2
    24    20    22   1
    25    28    20  am
    26    22    23   1
    27    23    24   1
    28    24    25   1
    29    25    26   1
    30    26    27   1
    31    29    28   1
    32    30    29   1
    33    29    32   1
    34    30    31   2
    35    44    30  am
    36    32    33   1
    37    33    34   1
    38    34    35   1
    39    35    36   1
    40    37    38   2
    41    39    37   1
    42    37    45  am
    43    40    39   1
    44    41    40   1
    45    42    41   1
    46    43    42   1
    47    43    44   1
    48    45    46   1
    49    46    47   1
    50    46    54   1
    51    47    48   1
    52    48    49   1
    53    49    50   1
    54    50    51  ar
    55    51    52  ar
    56    51    53  ar
    57    54    55   2
    58    54    56  am
    59    56    57   1
    60    57    58   1
    61    57    65   1
    62    58    59   1
    63    59    60   1
    64    60    61   1
    65    61    62  ar
    66    62    63  ar
    67    62    64  ar
    68    65    66   2
    69    65    67  am
    70     2    68   1
    71     7    69   1
    72     7    70   1
    73     9    71   1
    74    12    72   1
    75    13    73   1
    76    16    74   1
    77    17    75   1
    78    18    76   1
    79    19    77   1
    80    22    78   1
    81    22    79   1
    82    23    80   1
    83    23    81   1
    84    24    82   1
    85    24    83   1
    86    25    84   1
    87    25    85   1
    88    26    86   1
    89    26    87   1
    90    27    88   1
    91    28    89   1
    92    29    90   1
    93    32    91   1
    94    32    92   1
    95    33    93   1
    96    33    94   1
    97    34    95   1
    98    34    96   1
    99    35    97   1
   100    35    98   1
   101    36    99   1
   102    36   100   1
   103    36   101   1
   104    39   102   1
   105    39   103   1
   106    40   104   1
   107    40   105   1
   108    41   106   1
   109    41   107   1
   110    42   108   1
   111    42   109   1
   112    43   110   1
   113    43   111   1
   114    44   112   1
   115    45   113   1
   116    46   114   1
   117    47   115   1
   118    47   116   1
   119    48   117   1
   120    48   118   1
   121    49   119   1
   122    49   120   1
   123    50   121   1
   124    52   122   1
   125    52   123   1
   126    53   124   1
   127    53   125   1
   128    56   126   1
   129    57   127   1
   130    58   128   1
   131    58   129   1
   132    59   130   1
   133    59   131   1
   134    60   132   1
   135    60   133   1
   136    61   134   1
   137    63   135   1
   138    63   136   1
   139    64   137   1
   140    64   138   1
   141    67   139   1
   142    67   140   1
@<TRIPOS>SUBSTRUCTURE
     1  A02      2

