@<TRIPOS>MOLECULE
3ag9_ligand_088
   140   142
SMALL
GAST_HUCK
****
This file was generated by PARSER (from files_GN.cpp)

@<TRIPOS>ATOM
      1 N1         17.7085    9.0076   -1.1962 N.ar        1 A02      -0.2698
      2 C2         17.0609    9.5798   -0.1460 C.ar        1 A02       0.0533
      3 N3         16.4813    8.8027    0.8089 N.ar        1 A02      -0.2714
      4 C4         16.5468    7.4477    0.7105 C.ar        1 A02       0.1613
      5 C5         17.2007    6.8464   -0.3575 C.ar        1 A02       0.1045
      6 C6         17.7978    7.6535   -1.3406 C.ar        1 A02       0.1298
      7 N6         18.4508    7.1275   -2.3878 N.pl3       1 A02      -0.3152
      8 N7         17.1292    5.5163   -0.2107 N.2         1 A02      -0.2958
      9 C8         16.4460    5.3028    0.9304 C.2         1 A02       0.1123
     10 N9         16.0749    6.4691    1.5086 N.pl3       1 A02      -0.1918
     11 OAL        15.9834    4.2495    6.5812 O.2         1 A02      -0.3941
     12 OAN        13.1164    6.6321    4.9254 O.3         1 A02      -0.3840
     13 OAO        12.9740    6.2191    2.2343 O.3         1 A02      -0.3834
     14 OBV        16.2237    6.3164    3.8529 O.3         1 A02      -0.3181
     15 CCC        16.0483    4.5481    5.3923 C.2         1 A02       0.2080
     16 CCK        13.9776    5.6042    4.4162 C.3         1 A02       0.1295
     17 CCL        14.1298    5.6986    2.8890 C.3         1 A02       0.1408
     18 CCM        15.4333    5.7836    4.9324 C.3         1 A02       0.1788
     19 CCN        15.3626    6.6167    2.7446 C.3         1 A02       0.2035
     20 CBZ        13.6975    2.1333    8.5201 C.2         1 A02       0.1782
     21 OAI        12.7693    2.5076    7.8117 O.2         1 A02      -0.3969
     22 CBG        14.4719    0.9599    8.1634 C.3         1 A02       0.0374
     23 CAX        14.4442    0.5252    6.6656 C.3         1 A02      -0.0360
     24 CAU        15.1343    1.4840    5.6505 C.3         1 A02      -0.0492
     25 CAW        16.6667    1.6287    5.8472 C.3         1 A02      -0.0326
     26 CBD        17.3461    2.5376    4.7872 C.3         1 A02       0.0310
     27 NBR        16.6744    3.7723    4.5169 N.am        1 A02      -0.2847
     28 NBS        13.9949    2.7604    9.6574 N.am        1 A02      -0.2656
     29 CCI        13.4255    3.9799   10.1751 C.3         1 A02       0.1308
     30 CCB        14.2017    5.1380    9.7263 C.2         1 A02       0.2016
     31 OAK        14.1999    5.4198    8.5318 O.2         1 A02      -0.3945
     32 CBJ        11.8921    4.1126    9.8946 C.3         1 A02      -0.0122
     33 CAZ        11.0647    4.9395   10.9350 C.3         1 A02      -0.0440
     34 CAS        10.6297    4.1729   12.2138 C.3         1 A02      -0.0124
     35 CAR        11.7324    3.8987   13.2597 C.3         1 A02      -0.0354
     36 NAC        12.4942    5.1075   13.5949 N.4         1 A02       0.2185
     37 CCA        13.9280   12.2404    6.9408 C.2         1 A02       0.1782
     38 OAJ        12.8696   11.7421    6.5749 O.2         1 A02      -0.3969
     39 CBH        14.9354   11.3541    7.5156 C.3         1 A02       0.0374
     40 CAY        14.3420   10.3249    8.5338 C.3         1 A02      -0.0360
     41 CAT        15.4034    9.4023    9.2016 C.3         1 A02      -0.0492
     42 CAV        14.7349    8.2832   10.0460 C.3         1 A02      -0.0326
     43 CBC        15.6499    7.0472   10.2770 C.3         1 A02       0.0310
     44 NBQ        14.8892    5.8754   10.5922 N.am        1 A02      -0.2851
     45 NBT        14.1881   13.5300    6.7472 N.am        1 A02      -0.2656
     46 CCJ        13.3671   14.6292    6.2982 C.3         1 A02       0.1310
     47 CBK        11.8188   14.4085    6.1805 C.3         1 A02      -0.0092
     48 CBB        11.2803   13.3710    5.1329 C.3         1 A02      -0.0156
     49 CBF         9.9201   12.6952    5.4981 C.3         1 A02       0.0627
     50 NBP         9.9325   12.0806    6.7592 N.pl3       1 A02      -0.2723
     51 CBX        10.0182   10.8359    7.0648 C.cat       1 A02       0.2882
     52 NAB        10.1219    9.8767    6.2221 N.pl3       1 A02      -0.2849
     53 NAE        10.0175   10.5319    8.3080 N.pl3       1 A02      -0.2849
     54 CCD        14.0147   15.2952    5.1661 C.2         1 A02       0.2039
     55 OAM        13.4534   15.4037    4.0861 O.2         1 A02      -0.3944
     56 N          15.2183   15.8248    5.3297 N.am        1 A02      -0.2637
     57 CA         15.9866   16.5569    4.3509 C.3         1 A02       0.1307
     58 CB         17.4975   16.6099    4.7504 C.3         1 A02      -0.0092
     59 CG         17.8443   17.5848    5.9265 C.3         1 A02      -0.0156
     60 CD         18.6254   16.9272    7.1014 C.3         1 A02       0.0627
     61 NE         18.0299   17.1331    8.3445 N.pl3       1 A02      -0.2723
     62 CZ         18.1526   18.1237    9.1483 C.cat       1 A02       0.2882
     63 NH1        18.9089   19.1448    8.9844 N.pl3       1 A02      -0.2849
     64 NH2        17.4376   18.0873   10.2082 N.pl3       1 A02      -0.2849
     65 C          15.4800   17.9044    4.0786 C.2         1 A02       0.1992
     66 O          15.5897   18.3873    2.9567 O.2         1 A02      -0.3947
     67 NAF        14.9275   18.6620    4.9999 N.am        1 A02      -0.2990
     68 H1         17.0154   10.5976   -0.0685 H           1 A02       0.0996
     69 H2         18.5136    6.1626   -2.4909 H           1 A02       0.1820
     70 H3         18.8571    7.7086   -3.0503 H           1 A02       0.1820
     71 H4         16.2463    4.3704    1.2990 H           1 A02       0.1349
     72 H5         13.5363    7.4791    4.6648 H           1 A02       0.2102
     73 H6         13.1640    6.1398    1.2755 H           1 A02       0.2101
     74 H7         13.5463    4.6377    4.6951 H           1 A02       0.0673
     75 H8         14.3449    4.7007    2.4890 H           1 A02       0.0678
     76 H9         15.4441    6.5227    5.7421 H           1 A02       0.0869
     77 H10        15.0354    7.6537    2.8694 H           1 A02       0.0998
     78 H11        14.1014    0.1249    8.7661 H           1 A02       0.0502
     79 H12        15.5131    1.1186    8.4493 H           1 A02       0.0502
     80 H13        13.4029    0.4013    6.3604 H           1 A02       0.0290
     81 H14        14.9230   -0.4569    6.5925 H           1 A02       0.0290
     82 H15        14.6831    2.4793    5.7093 H           1 A02       0.0267
     83 H16        14.9376    1.0893    4.6481 H           1 A02       0.0267
     84 H17        17.1232    0.6378    5.8087 H           1 A02       0.0285
     85 H18        16.8589    2.0503    6.8384 H           1 A02       0.0285
     86 H19        17.4140    1.9826    3.8508 H           1 A02       0.0520
     87 H20        18.3656    2.7590    5.1122 H           1 A02       0.0520
     88 H21        16.7472    4.1312    3.6143 H           1 A02       0.1851
     89 H22        14.7057    2.3635   10.1978 H           1 A02       0.1883
     90 H23        13.5390    3.8887   11.2572 H           1 A02       0.0800
     91 H24        11.4553    3.1138    9.8055 H           1 A02       0.0312
     92 H25        11.7529    4.5963    8.9239 H           1 A02       0.0312
     93 H26        10.1416    5.2695   10.4457 H           1 A02       0.0269
     94 H27        11.6076    5.8422   11.2088 H           1 A02       0.0269
     95 H28        10.1944    3.2133   11.9162 H           1 A02       0.0317
     96 H29         9.8348    4.7494   12.7029 H           1 A02       0.0317
     97 H30        12.4140    3.1261   12.8998 H           1 A02       0.0813
     98 H31        11.2666    3.5289   14.1772 H           1 A02       0.0813
     99 H32        13.1914    4.8924   14.3102 H           1 A02       0.1994
    100 H33        11.8598    5.8243   13.9506 H           1 A02       0.1994
    101 H34        12.9692    5.4583   12.7642 H           1 A02       0.1994
    102 H35        15.7187   11.9297    8.0373 H           1 A02       0.0502
    103 H36        15.4039   10.7957    6.6927 H           1 A02       0.0502
    104 H37        13.6246    9.6796    8.0068 H           1 A02       0.0290
    105 H38        13.7837   10.8603    9.3142 H           1 A02       0.0290
    106 H39        16.0636    9.9971    9.8339 H           1 A02       0.0267
    107 H40        16.0063    8.9344    8.4172 H           1 A02       0.0267
    108 H41        13.8274    7.9634    9.5223 H           1 A02       0.0285
    109 H42        14.4393    8.6921   11.0190 H           1 A02       0.0285
    110 H43        16.3206    7.2626   11.1097 H           1 A02       0.0520
    111 H44        16.2729    6.8543    9.3995 H           1 A02       0.0520
    112 H45        14.8956    5.5879   11.5205 H           1 A02       0.1851
    113 H46        15.0789   13.8052    7.0155 H           1 A02       0.1883
    114 H47        13.4447   15.3411    7.1302 H           1 A02       0.0800
    115 H48        11.3497   15.3723    5.9322 H           1 A02       0.0313
    116 H49        11.4805   14.1521    7.1884 H           1 A02       0.0313
    117 H50        12.0279   12.5934    4.9676 H           1 A02       0.0301
    118 H51        11.1391   13.8819    4.1737 H           1 A02       0.0301
    119 H52         9.6593   11.9978    4.6933 H           1 A02       0.0689
    120 H53         9.1384   13.4676    5.5269 H           1 A02       0.0689
    121 H54         9.8588   12.6609    7.4937 H           1 A02       0.2642
    122 H55        10.1811    8.9927    6.5241 H           1 A02       0.2615
    123 H56        10.1292   10.0481    5.3053 H           1 A02       0.2615
    124 H57         9.9510   11.1959    8.9668 H           1 A02       0.2615
    125 H58        10.0837    9.6354    8.5652 H           1 A02       0.2615
    126 H59        15.6236   15.7132    6.2012 H           1 A02       0.1883
    127 H60        15.9360   15.9822    3.4222 H           1 A02       0.0800
    128 H61        18.0890   16.8956    3.8695 H           1 A02       0.0313
    129 H62        17.8161   15.5929    4.9974 H           1 A02       0.0313
    130 H63        16.9252   18.0249    6.3208 H           1 A02       0.0301
    131 H64        18.4510   18.4153    5.5443 H           1 A02       0.0301
    132 H65        19.6654   17.2643    7.1116 H           1 A02       0.0689
    133 H66        18.6459   15.8426    6.9691 H           1 A02       0.0689
    134 H67        17.4276   16.4683    8.6107 H           1 A02       0.2642
    135 H68        18.9112   19.8165    9.6368 H           1 A02       0.2615
    136 H69        19.4466   19.2218    8.2259 H           1 A02       0.2615
    137 H70        16.8692   17.3596   10.3523 H           1 A02       0.2615
    138 H71        17.4805   18.7911   10.8236 H           1 A02       0.2615
    139 H72        14.6120   19.5533    4.7734 H           1 A02       0.1815
    140 H73        14.8152   18.3284    5.9038 H           1 A02       0.1815
@<TRIPOS>BOND
     1     2     1  ar
     2     6     1  ar
     3     3     2  ar
     4     4     3  ar
     5     4     5  ar
     6    10     4   1
     7     5     6  ar
     8     8     5   1
     9     6     7   1
    10     9     8   2
    11    10     9   1
    12    19    10   1
    13    15    11   2
    14    16    12   1
    15    17    13   1
    16    18    14   1
    17    14    19   1
    18    15    18   1
    19    27    15  am
    20    16    17   1
    21    18    16   1
    22    17    19   1
    23    20    21   2
    24    20    22   1
    25    28    20  am
    26    22    23   1
    27    23    24   1
    28    24    25   1
    29    25    26   1
    30    26    27   1
    31    29    28   1
    32    30    29   1
    33    29    32   1
    34    30    31   2
    35    44    30  am
    36    32    33   1
    37    33    34   1
    38    34    35   1
    39    35    36   1
    40    37    38   2
    41    39    37   1
    42    37    45  am
    43    40    39   1
    44    41    40   1
    45    42    41   1
    46    43    42   1
    47    43    44   1
    48    45    46   1
    49    46    47   1
    50    46    54   1
    51    47    48   1
    52    48    49   1
    53    49    50   1
    54    50    51  ar
    55    51    52  ar
    56    51    53  ar
    57    54    55   2
    58    54    56  am
    59    56    57   1
    60    57    58   1
    61    57    65   1
    62    58    59   1
    63    59    60   1
    64    60    61   1
    65    61    62  ar
    66    62    63  ar
    67    62    64  ar
    68    65    66   2
    69    65    67  am
    70     2    68   1
    71     7    69   1
    72     7    70   1
    73     9    71   1
    74    12    72   1
    75    13    73   1
    76    16    74   1
    77    17    75   1
    78    18    76   1
    79    19    77   1
    80    22    78   1
    81    22    79   1
    82    23    80   1
    83    23    81   1
    84    24    82   1
    85    24    83   1
    86    25    84   1
    87    25    85   1
    88    26    86   1
    89    26    87   1
    90    27    88   1
    91    28    89   1
    92    29    90   1
    93    32    91   1
    94    32    92   1
    95    33    93   1
    96    33    94   1
    97    34    95   1
    98    34    96   1
    99    35    97   1
   100    35    98   1
   101    36    99   1
   102    36   100   1
   103    36   101   1
   104    39   102   1
   105    39   103   1
   106    40   104   1
   107    40   105   1
   108    41   106   1
   109    41   107   1
   110    42   108   1
   111    42   109   1
   112    43   110   1
   113    43   111   1
   114    44   112   1
   115    45   113   1
   116    46   114   1
   117    47   115   1
   118    47   116   1
   119    48   117   1
   120    48   118   1
   121    49   119   1
   122    49   120   1
   123    50   121   1
   124    52   122   1
   125    52   123   1
   126    53   124   1
   127    53   125   1
   128    56   126   1
   129    57   127   1
   130    58   128   1
   131    58   129   1
   132    59   130   1
   133    59   131   1
   134    60   132   1
   135    60   133   1
   136    61   134   1
   137    63   135   1
   138    63   136   1
   139    64   137   1
   140    64   138   1
   141    67   139   1
   142    67   140   1
@<TRIPOS>SUBSTRUCTURE
     1  A02      2

