@<TRIPOS>MOLECULE
3ag9_ligand_071
   140   142
SMALL
GAST_HUCK
****
This file was generated by PARSER (from files_GN.cpp)

@<TRIPOS>ATOM
      1 N1         20.3710    8.7876   -1.4122 N.ar        1 A02      -0.2698
      2 C2         20.6610    7.4654   -1.5822 C.ar        1 A02       0.0533
      3 N3         20.5238    6.5946   -0.5470 N.ar        1 A02      -0.2714
      4 C4         20.0992    7.0493    0.6586 C.ar        1 A02       0.1613
      5 C5         19.8024    8.3958    0.8586 C.ar        1 A02       0.1045
      6 C6         19.9447    9.2841   -0.2195 C.ar        1 A02       0.1298
      7 N6         19.6647   10.5908   -0.0920 N.pl3       1 A02      -0.3152
      8 N7         19.4191    8.5715    2.1303 N.2         1 A02      -0.2958
      9 C8         19.4752    7.3601    2.7097 C.2         1 A02       0.1123
     10 N9         19.8866    6.4184    1.8284 N.pl3       1 A02      -0.1918
     11 OAL        17.7996    4.2367    5.5147 O.2         1 A02      -0.3941
     12 OAN        21.0715    3.2918    5.1823 O.3         1 A02      -0.3840
     13 OAO        22.0655    3.7177    2.6636 O.3         1 A02      -0.3834
     14 OBV        18.8132    4.5029    2.6217 O.3         1 A02      -0.3181
     15 CCC        17.9653    3.4560    4.5870 C.2         1 A02       0.2080
     16 CCK        20.3784    4.2412    4.3692 C.3         1 A02       0.1295
     17 CCL        21.1700    4.7257    3.1423 C.3         1 A02       0.1408
     18 CCM        19.1208    3.6282    3.7137 C.3         1 A02       0.1788
     19 CCN        20.0537    5.0182    2.1010 C.3         1 A02       0.2035
     20 CBZ        16.2452    0.9965    8.2763 C.2         1 A02       0.1782
     21 OAI        17.0857    0.2549    7.7847 O.2         1 A02      -0.3969
     22 CBG        14.8651    0.5533    8.3561 C.3         1 A02       0.0374
     23 CAX        14.0357    0.7809    7.0623 C.3         1 A02      -0.0360
     24 CAU        13.8895    2.2559    6.5775 C.3         1 A02      -0.0492
     25 CAW        15.1253    2.9405    5.9206 C.3         1 A02      -0.0326
     26 CBD        16.0205    1.9732    5.0933 C.3         1 A02       0.0310
     27 NBR        17.1042    2.4868    4.3081 N.am        1 A02      -0.2847
     28 NBS        16.5764    2.2004    8.7262 N.am        1 A02      -0.2656
     29 CCI        17.8128    2.9120    8.5122 C.3         1 A02       0.1308
     30 CCB        17.5891    4.3351    8.2445 C.2         1 A02       0.2016
     31 OAK        18.5371    4.9770    7.8036 O.2         1 A02      -0.3945
     32 CBJ        18.7199    2.7279    9.7723 C.3         1 A02      -0.0122
     33 CAZ        19.2201    1.2743    9.9944 C.3         1 A02      -0.0440
     34 CAS        20.5889    0.9735    9.3119 C.3         1 A02      -0.0124
     35 CAR        21.0692   -0.5096    9.3489 C.3         1 A02      -0.0354
     36 NAC        20.2024   -1.4365   10.0891 N.4         1 A02       0.2185
     37 CCA        14.5703   10.8682    7.3910 C.2         1 A02       0.1782
     38 OAJ        13.8307   11.2905    8.2719 O.2         1 A02      -0.3969
     39 CBH        15.5010    9.7877    7.6631 C.3         1 A02       0.0374
     40 CAY        15.6894    9.3711    9.1541 C.3         1 A02      -0.0360
     41 CAT        14.7535    8.2296    9.6487 C.3         1 A02      -0.0492
     42 CAV        14.8610    6.8488    8.9276 C.3         1 A02      -0.0326
     43 CBC        16.3074    6.3895    8.5974 C.3         1 A02       0.0310
     44 NBQ        16.4597    4.9672    8.5600 N.am        1 A02      -0.2851
     45 NBT        14.5625   11.4131    6.1775 N.am        1 A02      -0.2656
     46 CCJ        13.8169   12.5748    5.7640 C.3         1 A02       0.1310
     47 CBK        12.4213   12.2291    5.1195 C.3         1 A02      -0.0092
     48 CBB        12.1326   10.7119    4.8858 C.3         1 A02      -0.0156
     49 CBF        10.7131   10.2261    5.3307 C.3         1 A02       0.0627
     50 NBP        10.7185    9.6240    6.5993 N.pl3       1 A02      -0.2723
     51 CBX        10.5034   10.2011    7.7265 C.cat       1 A02       0.2882
     52 NAB        10.2106   11.4366    7.8678 N.pl3       1 A02      -0.2849
     53 NAE        10.5943    9.5037    8.7924 N.pl3       1 A02      -0.2849
     54 CCD        14.6928   13.3541    4.8915 C.2         1 A02       0.2039
     55 OAM        14.8263   12.9872    3.7286 O.2         1 A02      -0.3944
     56 N          15.3738   14.4063    5.3463 N.am        1 A02      -0.2637
     57 CA         16.1744   15.3015    4.5490 C.3         1 A02       0.1307
     58 CB         16.7877   16.4433    5.4182 C.3         1 A02      -0.0092
     59 CG         18.1598   16.0862    6.0567 C.3         1 A02      -0.0156
     60 CD         18.7143   17.2276    6.9522 C.3         1 A02       0.0627
     61 NE         18.0280   17.3073    8.1696 N.pl3       1 A02      -0.2723
     62 CZ         18.1064   18.2398    9.0452 C.cat       1 A02       0.2882
     63 NH1        18.8181   19.2968    8.9402 N.pl3       1 A02      -0.2849
     64 NH2        17.4202   18.1125   10.1121 N.pl3       1 A02      -0.2849
     65 C          15.3709   15.8600    3.4661 C.2         1 A02       0.1992
     66 O          15.6855   15.6791    2.2985 O.2         1 A02      -0.3947
     67 NAF        14.3026   16.5920    3.6998 N.am        1 A02      -0.2990
     68 H1         20.9774    7.1263   -2.4887 H           1 A02       0.0996
     69 H2         19.3605   10.9425    0.7600 H           1 A02       0.1820
     70 H3         19.7616   11.1859   -0.8528 H           1 A02       0.1820
     71 H4         19.2335    7.1869    3.6890 H           1 A02       0.1349
     72 H5         21.8384    3.7709    5.5613 H           1 A02       0.2102
     73 H6         22.7122    3.5858    3.3890 H           1 A02       0.2101
     74 H7         20.1231    5.1097    4.9856 H           1 A02       0.0673
     75 H8         21.7547    5.6208    3.3810 H           1 A02       0.0678
     76 H9         19.4104    2.6579    3.2863 H           1 A02       0.0869
     77 H10        20.2666    4.4755    1.1732 H           1 A02       0.0998
     78 H11        14.3484    1.0440    9.1878 H           1 A02       0.0502
     79 H12        14.8774   -0.5162    8.5729 H           1 A02       0.0502
     80 H13        13.0273    0.4051    7.2638 H           1 A02       0.0290
     81 H14        14.4317    0.1577    6.2571 H           1 A02       0.0290
     82 H15        13.5698    2.8706    7.4245 H           1 A02       0.0267
     83 H16        13.0719    2.2683    5.8533 H           1 A02       0.0267
     84 H17        15.7199    3.4038    6.7034 H           1 A02       0.0285
     85 H18        14.7628    3.7361    5.2608 H           1 A02       0.0285
     86 H19        15.3700    1.4232    4.4098 H           1 A02       0.0520
     87 H20        16.4678    1.2357    5.7550 H           1 A02       0.0520
     88 H21        17.3225    1.9650    3.5155 H           1 A02       0.1851
     89 H22        15.8983    2.6745    9.2340 H           1 A02       0.1883
     90 H23        18.3319    2.5154    7.6339 H           1 A02       0.0800
     91 H24        18.1435    3.0235   10.6542 H           1 A02       0.0312
     92 H25        19.5981    3.3841    9.7265 H           1 A02       0.0312
     93 H26        18.4622    0.5727    9.6330 H           1 A02       0.0269
     94 H27        19.3435    1.1199   11.0722 H           1 A02       0.0269
     95 H28        21.3533    1.5959    9.7967 H           1 A02       0.0317
     96 H29        20.5398    1.2884    8.2655 H           1 A02       0.0317
     97 H30        22.0638   -0.5660    9.7979 H           1 A02       0.0813
     98 H31        21.1487   -0.8945    8.3290 H           1 A02       0.0813
     99 H32        20.5968   -2.3761   10.0500 H           1 A02       0.1994
    100 H33        19.2728   -1.4502    9.6648 H           1 A02       0.1994
    101 H34        20.1241   -1.1396   11.0649 H           1 A02       0.1994
    102 H35        16.4728   10.1132    7.2867 H           1 A02       0.0502
    103 H36        15.2105    8.9146    7.0770 H           1 A02       0.0502
    104 H37        15.5558   10.2428    9.8027 H           1 A02       0.0290
    105 H38        16.7253    9.0659    9.3044 H           1 A02       0.0290
    106 H39        13.7164    8.5735    9.5895 H           1 A02       0.0267
    107 H40        14.9735    8.0671   10.7079 H           1 A02       0.0267
    108 H41        14.2831    6.8776    7.9987 H           1 A02       0.0285
    109 H42        14.3840    6.1041    9.5737 H           1 A02       0.0285
    110 H43        16.9850    6.7540    9.3691 H           1 A02       0.0520
    111 H44        16.6027    6.8237    7.6376 H           1 A02       0.0520
    112 H45        15.7128    4.4346    8.8783 H           1 A02       0.1851
    113 H46        15.1261   10.9946    5.5066 H           1 A02       0.1883
    114 H47        13.6031   13.1896    6.6474 H           1 A02       0.0800
    115 H48        12.2993   12.7295    4.1537 H           1 A02       0.0313
    116 H49        11.6476   12.6409    5.7782 H           1 A02       0.0313
    117 H50        12.8886   10.1221    5.4079 H           1 A02       0.0301
    118 H51        12.2583   10.5007    3.8191 H           1 A02       0.0301
    119 H52        10.3520    9.4763    4.6181 H           1 A02       0.0689
    120 H53         9.9774   11.0398    5.3261 H           1 A02       0.0689
    121 H54        10.9218    8.7108    6.6291 H           1 A02       0.2642
    122 H55        10.0821   11.7898    8.7243 H           1 A02       0.2615
    123 H56        10.1368   11.9969    7.1226 H           1 A02       0.2615
    124 H57        10.8135    8.5960    8.7466 H           1 A02       0.2615
    125 H58        10.4520    9.9063    9.6263 H           1 A02       0.2615
    126 H59        15.3243   14.5922    6.3006 H           1 A02       0.1883
    127 H60        17.0077   14.7338    4.1178 H           1 A02       0.0800
    128 H61        16.0800   16.7189    6.2060 H           1 A02       0.0313
    129 H62        16.9481   17.3294    4.7939 H           1 A02       0.0313
    130 H63        18.8803   15.9051    5.2533 H           1 A02       0.0301
    131 H64        18.0782   15.1644    6.6406 H           1 A02       0.0301
    132 H65        18.6485   18.1740    6.4055 H           1 A02       0.0689
    133 H66        19.7693   17.0373    7.1641 H           1 A02       0.0689
    134 H67        17.4578   16.5941    8.3789 H           1 A02       0.2642
    135 H68        18.8013   19.9246    9.6333 H           1 A02       0.2615
    136 H69        19.3454   19.4477    8.1836 H           1 A02       0.2615
    137 H70        16.8957   17.3479   10.2470 H           1 A02       0.2615
    138 H71        17.4557   18.7839   10.7629 H           1 A02       0.2615
    139 H72        13.8032   16.9681    2.9576 H           1 A02       0.1815
    140 H73        14.0189   16.7710    4.6111 H           1 A02       0.1815
@<TRIPOS>BOND
     1     2     1  ar
     2     6     1  ar
     3     3     2  ar
     4     4     3  ar
     5     4     5  ar
     6    10     4   1
     7     5     6  ar
     8     8     5   1
     9     6     7   1
    10     9     8   2
    11    10     9   1
    12    19    10   1
    13    15    11   2
    14    16    12   1
    15    17    13   1
    16    18    14   1
    17    14    19   1
    18    15    18   1
    19    27    15  am
    20    16    17   1
    21    18    16   1
    22    17    19   1
    23    20    21   2
    24    20    22   1
    25    28    20  am
    26    22    23   1
    27    23    24   1
    28    24    25   1
    29    25    26   1
    30    26    27   1
    31    29    28   1
    32    30    29   1
    33    29    32   1
    34    30    31   2
    35    44    30  am
    36    32    33   1
    37    33    34   1
    38    34    35   1
    39    35    36   1
    40    37    38   2
    41    39    37   1
    42    37    45  am
    43    40    39   1
    44    41    40   1
    45    42    41   1
    46    43    42   1
    47    43    44   1
    48    45    46   1
    49    46    47   1
    50    46    54   1
    51    47    48   1
    52    48    49   1
    53    49    50   1
    54    50    51  ar
    55    51    52  ar
    56    51    53  ar
    57    54    55   2
    58    54    56  am
    59    56    57   1
    60    57    58   1
    61    57    65   1
    62    58    59   1
    63    59    60   1
    64    60    61   1
    65    61    62  ar
    66    62    63  ar
    67    62    64  ar
    68    65    66   2
    69    65    67  am
    70     2    68   1
    71     7    69   1
    72     7    70   1
    73     9    71   1
    74    12    72   1
    75    13    73   1
    76    16    74   1
    77    17    75   1
    78    18    76   1
    79    19    77   1
    80    22    78   1
    81    22    79   1
    82    23    80   1
    83    23    81   1
    84    24    82   1
    85    24    83   1
    86    25    84   1
    87    25    85   1
    88    26    86   1
    89    26    87   1
    90    27    88   1
    91    28    89   1
    92    29    90   1
    93    32    91   1
    94    32    92   1
    95    33    93   1
    96    33    94   1
    97    34    95   1
    98    34    96   1
    99    35    97   1
   100    35    98   1
   101    36    99   1
   102    36   100   1
   103    36   101   1
   104    39   102   1
   105    39   103   1
   106    40   104   1
   107    40   105   1
   108    41   106   1
   109    41   107   1
   110    42   108   1
   111    42   109   1
   112    43   110   1
   113    43   111   1
   114    44   112   1
   115    45   113   1
   116    46   114   1
   117    47   115   1
   118    47   116   1
   119    48   117   1
   120    48   118   1
   121    49   119   1
   122    49   120   1
   123    50   121   1
   124    52   122   1
   125    52   123   1
   126    53   124   1
   127    53   125   1
   128    56   126   1
   129    57   127   1
   130    58   128   1
   131    58   129   1
   132    59   130   1
   133    59   131   1
   134    60   132   1
   135    60   133   1
   136    61   134   1
   137    63   135   1
   138    63   136   1
   139    64   137   1
   140    64   138   1
   141    67   139   1
   142    67   140   1
@<TRIPOS>SUBSTRUCTURE
     1  A02      2

