@<TRIPOS>MOLECULE
3ag9_ligand_015
   140   142
SMALL
GAST_HUCK
****
This file was generated by PARSER (from files_GN.cpp)

@<TRIPOS>ATOM
      1 N1          5.3838    7.2592   14.0421 N.ar        1 A02      -0.2698
      2 C2          4.9203    7.0004   12.7864 C.ar        1 A02       0.0533
      3 N3          5.2567    7.8190   11.7520 N.ar        1 A02      -0.2714
      4 C4          6.0600    8.8925   11.9660 C.ar        1 A02       0.1613
      5 C5          6.5430    9.1719   13.2415 C.ar        1 A02       0.1045
      6 C6          6.1849    8.3240   14.3075 C.ar        1 A02       0.1298
      7 N6          6.6080    8.5571   15.5626 N.pl3       1 A02      -0.3152
      8 N7          7.2900   10.2776   13.1807 N.2         1 A02      -0.2958
      9 C8          7.2737   10.6740   11.8929 C.2         1 A02       0.1123
     10 N9          6.5359    9.8365   11.1294 N.pl3       1 A02      -0.1918
     11 OAL         9.2818    8.4091    8.2598 O.2         1 A02      -0.3941
     12 OAN         6.0181   10.4881    6.7338 O.3         1 A02      -0.3840
     13 OAO         6.8430   12.1789    8.7552 O.3         1 A02      -0.3834
     14 OBV         6.1379    8.6560    9.1081 O.3         1 A02      -0.3181
     15 CCC         8.1887    7.8565    8.2849 C.2         1 A02       0.2080
     16 CCK         7.1448   10.0746    7.5110 C.3         1 A02       0.1295
     17 CCL         7.1985   10.7995    8.8628 C.3         1 A02       0.1408
     18 CCM         6.9764    8.6014    7.9469 C.3         1 A02       0.1788
     19 CCN         6.2248    9.9573    9.7276 C.3         1 A02       0.2035
     20 CBZ        14.3000    5.6908   10.5171 C.2         1 A02       0.1782
     21 OAI        14.8814    5.5644   11.5890 O.2         1 A02      -0.3969
     22 CBG        13.5605    4.5444   10.0019 C.3         1 A02       0.0374
     23 CAX        12.0775    4.8178    9.6182 C.3         1 A02      -0.0360
     24 CAU        11.3804    5.9597   10.4158 C.3         1 A02      -0.0492
     25 CAW         9.8265    6.0132   10.3367 C.3         1 A02      -0.0326
     26 CBD         9.2078    5.7260    8.9342 C.3         1 A02       0.0310
     27 NBR         8.0923    6.5770    8.6288 N.am        1 A02      -0.2847
     28 NBS        14.3156    6.8347    9.8486 N.am        1 A02      -0.2656
     29 CCI        14.9922    8.0491   10.2283 C.3         1 A02       0.1308
     30 CCB        16.0874    8.2959    9.2958 C.2         1 A02       0.2016
     31 OAK        16.1698    9.3567    8.6832 O.2         1 A02      -0.3945
     32 CBJ        13.9550    9.2017   10.3973 C.3         1 A02      -0.0122
     33 CAZ        13.0153    9.4936    9.1812 C.3         1 A02      -0.0440
     34 CAS        13.0119   10.9923    8.7660 C.3         1 A02      -0.0124
     35 CAR        12.0556   11.3451    7.6025 C.3         1 A02      -0.0354
     36 NAC        10.6574   11.0422    7.9310 N.4         1 A02       0.2185
     37 CCA        21.9811    9.7821    5.1433 C.2         1 A02       0.1782
     38 OAJ        23.0832    9.9595    4.6304 O.2         1 A02      -0.3969
     39 CBH        21.8100    8.6726    6.0553 C.3         1 A02       0.0374
     40 CAY        21.0149    8.9901    7.3575 C.3         1 A02      -0.0360
     41 CAT        20.7428    7.7471    8.2526 C.3         1 A02      -0.0492
     42 CAV        19.4331    7.8255    9.0816 C.3         1 A02      -0.0326
     43 CBC        18.1636    7.4143    8.3011 C.3         1 A02       0.0310
     44 NBQ        17.0424    7.3853    9.1820 N.am        1 A02      -0.2851
     45 NBT        20.9233   10.5062    4.7712 N.am        1 A02      -0.2656
     46 CCJ        20.8383   11.5472    3.7948 C.3         1 A02       0.1310
     47 CBK        21.9728   12.6396    3.8810 C.3         1 A02      -0.0092
     48 CBB        22.3956   13.2279    2.4889 C.3         1 A02      -0.0156
     49 CBF        23.7568   12.6978    1.9212 C.3         1 A02       0.0627
     50 NBP        24.5719   13.7024    1.3865 N.pl3       1 A02      -0.2723
     51 CBX        24.3449   14.4817    0.3892 C.cat       1 A02       0.2882
     52 NAB        23.3008   14.4349   -0.3418 N.pl3       1 A02      -0.2849
     53 NAE        25.2392   15.3555    0.1181 N.pl3       1 A02      -0.2849
     54 CCD        19.5197   12.1733    3.9832 C.2         1 A02       0.2039
     55 OAM        18.7145   12.1820    3.0628 O.2         1 A02      -0.3944
     56 N          19.2171   12.6981    5.1734 N.am        1 A02      -0.2637
     57 CA         18.0105   13.3708    5.5750 C.3         1 A02       0.1307
     58 CB         18.3710   14.3608    6.7467 C.3         1 A02      -0.0092
     59 CG         18.2691   15.8476    6.3032 C.3         1 A02      -0.0156
     60 CD         18.8521   16.8957    7.2805 C.3         1 A02       0.0627
     61 NE         18.0609   17.1050    8.4132 N.pl3       1 A02      -0.2723
     62 CZ         18.1110   18.1209    9.1946 C.cat       1 A02       0.2882
     63 NH1        18.8933   19.1239    9.0486 N.pl3       1 A02      -0.2849
     64 NH2        17.3203   18.1544   10.1935 N.pl3       1 A02      -0.2849
     65 C          16.9268   12.4497    5.9020 C.2         1 A02       0.1992
     66 O          16.9738   11.2558    5.6322 O.2         1 A02      -0.3947
     67 NAF        15.8157   12.8903    6.4664 N.am        1 A02      -0.2990
     68 H1          4.3189    6.1924   12.6214 H           1 A02       0.0996
     69 H2          7.1632    9.3288   15.7522 H           1 A02       0.1820
     70 H3          6.3427    7.9636   16.2846 H           1 A02       0.1820
     71 H4          7.7469   11.5163   11.5641 H           1 A02       0.1349
     72 H5          6.2112   11.4130    6.4705 H           1 A02       0.2102
     73 H6          7.5626   12.6801    9.1961 H           1 A02       0.2101
     74 H7          8.0517   10.2379    6.9210 H           1 A02       0.0673
     75 H8          8.2191   10.7346    9.2532 H           1 A02       0.0678
     76 H9          6.4566    8.0520    7.1570 H           1 A02       0.0869
     77 H10         5.2272   10.4007    9.6537 H           1 A02       0.0998
     78 H11        13.5691    3.7313   10.7375 H           1 A02       0.0502
     79 H12        14.0820    4.1754    9.1131 H           1 A02       0.0502
     80 H13        11.5161    3.8902    9.7615 H           1 A02       0.0290
     81 H14        12.0462    5.0563    8.5523 H           1 A02       0.0290
     82 H15        11.7642    6.9178   10.0542 H           1 A02       0.0267
     83 H16        11.6593    5.8706   11.4709 H           1 A02       0.0267
     84 H17         9.5187    7.0085   10.6834 H           1 A02       0.0285
     85 H18         9.4147    5.2910   11.0527 H           1 A02       0.0285
     86 H19         8.8524    4.6946    8.9179 H           1 A02       0.0520
     87 H20         9.9499    5.8187    8.1382 H           1 A02       0.0520
     88 H21         7.2092    6.1646    8.6119 H           1 A02       0.1851
     89 H22        13.8064    6.8669    9.0230 H           1 A02       0.1883
     90 H23        15.4533    7.9329   11.2136 H           1 A02       0.0800
     91 H24        14.5129   10.1028   10.6701 H           1 A02       0.0312
     92 H25        13.3279    8.9784   11.2662 H           1 A02       0.0312
     93 H26        11.9949    9.1974    9.4401 H           1 A02       0.0269
     94 H27        13.3136    8.9012    8.3129 H           1 A02       0.0269
     95 H28        14.0227   11.2691    8.4571 H           1 A02       0.0317
     96 H29        12.7439   11.6048    9.6308 H           1 A02       0.0317
     97 H30        12.3415   10.7974    6.7018 H           1 A02       0.0813
     98 H31        12.1300   12.4156    7.3955 H           1 A02       0.0813
     99 H32        10.0436   11.4023    7.1964 H           1 A02       0.1994
    100 H33        10.4120   11.4743    8.8257 H           1 A02       0.1994
    101 H34        10.5436   10.0299    8.0014 H           1 A02       0.1994
    102 H35        22.7942    8.2757    6.3294 H           1 A02       0.0502
    103 H36        21.2837    7.8828    5.5135 H           1 A02       0.0502
    104 H37        20.0600    9.4328    7.0623 H           1 A02       0.0290
    105 H38        21.5592    9.7425    7.9400 H           1 A02       0.0290
    106 H39        21.5748    7.6414    8.9513 H           1 A02       0.0267
    107 H40        20.7213    6.8389    7.6460 H           1 A02       0.0267
    108 H41        19.3062    8.8430    9.4617 H           1 A02       0.0285
    109 H42        19.5363    7.1583    9.9414 H           1 A02       0.0285
    110 H43        18.2841    6.4079    7.8985 H           1 A02       0.0520
    111 H44        17.9990    8.0864    7.4573 H           1 A02       0.0520
    112 H45        16.9793    6.6132    9.7639 H           1 A02       0.1851
    113 H46        20.0937   10.2796    5.2158 H           1 A02       0.1883
    114 H47        20.8765   11.0444    2.8145 H           1 A02       0.0800
    115 H48        22.8529   12.2287    4.3850 H           1 A02       0.0313
    116 H49        21.6594   13.4775    4.5153 H           1 A02       0.0313
    117 H50        22.4572   14.3214    2.6023 H           1 A02       0.0301
    118 H51        21.6169   13.0499    1.7279 H           1 A02       0.0301
    119 H52        23.5862   11.9068    1.1848 H           1 A02       0.0689
    120 H53        24.3521   12.2606    2.7231 H           1 A02       0.0689
    121 H54        25.3937   13.8258    1.8187 H           1 A02       0.2642
    122 H55        23.2032   15.0343   -1.0557 H           1 A02       0.2615
    123 H56        22.6358   13.7978   -0.1700 H           1 A02       0.2615
    124 H57        26.0152   15.4086    0.6395 H           1 A02       0.2615
    125 H58        25.1190   15.9453   -0.5997 H           1 A02       0.2615
    126 H59        19.9212   12.6555    5.8431 H           1 A02       0.1883
    127 H60        17.6445   13.9439    4.7153 H           1 A02       0.0800
    128 H61        19.3816   14.1739    7.1190 H           1 A02       0.0313
    129 H62        17.7143   14.2174    7.6051 H           1 A02       0.0313
    130 H63        17.2119   16.0832    6.1285 H           1 A02       0.0301
    131 H64        18.7937   15.9615    5.3473 H           1 A02       0.0301
    132 H65        18.9463   17.8264    6.7158 H           1 A02       0.0689
    133 H66        19.8539   16.5927    7.5939 H           1 A02       0.0689
    134 H67        17.4332   16.4470    8.6300 H           1 A02       0.2642
    135 H68        18.8493   19.8313    9.6626 H           1 A02       0.2615
    136 H69        19.4963   19.1600    8.3358 H           1 A02       0.2615
    137 H70        16.7349   17.4464   10.3565 H           1 A02       0.2615
    138 H71        17.3333   18.8983   10.7623 H           1 A02       0.2615
    139 H72        15.0837   12.2797    6.6496 H           1 A02       0.1815
    140 H73        15.7566   13.8120    6.7729 H           1 A02       0.1815
@<TRIPOS>BOND
     1     2     1  ar
     2     6     1  ar
     3     3     2  ar
     4     4     3  ar
     5     4     5  ar
     6    10     4   1
     7     5     6  ar
     8     8     5   1
     9     6     7   1
    10     9     8   2
    11    10     9   1
    12    19    10   1
    13    15    11   2
    14    16    12   1
    15    17    13   1
    16    18    14   1
    17    14    19   1
    18    15    18   1
    19    27    15  am
    20    16    17   1
    21    18    16   1
    22    17    19   1
    23    20    21   2
    24    20    22   1
    25    28    20  am
    26    22    23   1
    27    23    24   1
    28    24    25   1
    29    25    26   1
    30    26    27   1
    31    29    28   1
    32    30    29   1
    33    29    32   1
    34    30    31   2
    35    44    30  am
    36    32    33   1
    37    33    34   1
    38    34    35   1
    39    35    36   1
    40    37    38   2
    41    39    37   1
    42    37    45  am
    43    40    39   1
    44    41    40   1
    45    42    41   1
    46    43    42   1
    47    43    44   1
    48    45    46   1
    49    46    47   1
    50    46    54   1
    51    47    48   1
    52    48    49   1
    53    49    50   1
    54    50    51  ar
    55    51    52  ar
    56    51    53  ar
    57    54    55   2
    58    54    56  am
    59    56    57   1
    60    57    58   1
    61    57    65   1
    62    58    59   1
    63    59    60   1
    64    60    61   1
    65    61    62  ar
    66    62    63  ar
    67    62    64  ar
    68    65    66   2
    69    65    67  am
    70     2    68   1
    71     7    69   1
    72     7    70   1
    73     9    71   1
    74    12    72   1
    75    13    73   1
    76    16    74   1
    77    17    75   1
    78    18    76   1
    79    19    77   1
    80    22    78   1
    81    22    79   1
    82    23    80   1
    83    23    81   1
    84    24    82   1
    85    24    83   1
    86    25    84   1
    87    25    85   1
    88    26    86   1
    89    26    87   1
    90    27    88   1
    91    28    89   1
    92    29    90   1
    93    32    91   1
    94    32    92   1
    95    33    93   1
    96    33    94   1
    97    34    95   1
    98    34    96   1
    99    35    97   1
   100    35    98   1
   101    36    99   1
   102    36   100   1
   103    36   101   1
   104    39   102   1
   105    39   103   1
   106    40   104   1
   107    40   105   1
   108    41   106   1
   109    41   107   1
   110    42   108   1
   111    42   109   1
   112    43   110   1
   113    43   111   1
   114    44   112   1
   115    45   113   1
   116    46   114   1
   117    47   115   1
   118    47   116   1
   119    48   117   1
   120    48   118   1
   121    49   119   1
   122    49   120   1
   123    50   121   1
   124    52   122   1
   125    52   123   1
   126    53   124   1
   127    53   125   1
   128    56   126   1
   129    57   127   1
   130    58   128   1
   131    58   129   1
   132    59   130   1
   133    59   131   1
   134    60   132   1
   135    60   133   1
   136    61   134   1
   137    63   135   1
   138    63   136   1
   139    64   137   1
   140    64   138   1
   141    67   139   1
   142    67   140   1
@<TRIPOS>SUBSTRUCTURE
     1  A02      2

