@<TRIPOS>MOLECULE
3ag9_ligand_084
   140   142
SMALL
GAST_HUCK
****
This file was generated by PARSER (from files_GN.cpp)

@<TRIPOS>ATOM
      1 N1         14.0839    1.0776    6.3475 N.ar        1 A02      -0.2698
      2 C2         13.1899    2.0996    6.4443 C.ar        1 A02       0.0533
      3 N3         13.5335    3.3500    6.0283 N.ar        1 A02      -0.2714
      4 C4         14.7747    3.5808    5.5271 C.ar        1 A02       0.1613
      5 C5         15.7096    2.5482    5.4334 C.ar        1 A02       0.1045
      6 C6         15.3388    1.2634    5.8569 C.ar        1 A02       0.1298
      7 N6         16.1923    0.2336    5.7681 N.pl3       1 A02      -0.3152
      8 N7         16.8434    3.0391    4.9177 N.2         1 A02      -0.2958
      9 C8         16.6191    4.3443    4.6841 C.2         1 A02       0.1123
     10 N9         15.3627    4.6938    5.0477 N.pl3       1 A02      -0.1918
     11 OAL        11.5215    5.2867    5.9834 O.2         1 A02      -0.3941
     12 OAN        13.5352    8.5013    3.5573 O.3         1 A02      -0.3840
     13 OAO        14.6752    6.2803    2.4122 O.3         1 A02      -0.3834
     14 OBV        13.9357    6.3629    5.9767 O.3         1 A02      -0.3181
     15 CCC        11.5717    6.5097    5.8957 C.2         1 A02       0.2080
     16 CCK        12.9628    7.2435    3.9383 C.3         1 A02       0.1295
     17 CCL        13.9001    6.0725    3.5982 C.3         1 A02       0.1408
     18 CCM        12.8210    7.1373    5.4835 C.3         1 A02       0.1788
     19 CCN        14.7780    5.9975    4.8679 C.3         1 A02       0.2035
     20 CBZ        11.0025    5.2429   11.1433 C.2         1 A02       0.1782
     21 OAI        10.7871    6.2863   10.5418 O.2         1 A02      -0.3969
     22 CBG        10.4799    3.9927   10.6294 C.3         1 A02       0.0374
     23 CAX         9.4709    4.0886    9.4391 C.3         1 A02      -0.0360
     24 CAU         9.9574    4.9342    8.2141 C.3         1 A02      -0.0492
     25 CAW         9.0981    6.2040    7.9440 C.3         1 A02      -0.0326
     26 CBD         9.2030    6.7780    6.5005 C.3         1 A02       0.0310
     27 NBR        10.5063    7.2570    6.1605 N.am        1 A02      -0.2847
     28 NBS        11.6776    5.2353   12.2840 N.am        1 A02      -0.2656
     29 CCI        12.2362    6.3557   12.9908 C.3         1 A02       0.1308
     30 CCB        13.5171    6.7366   12.4026 C.2         1 A02       0.2016
     31 OAK        14.5672    6.5985   13.0243 O.2         1 A02      -0.3945
     32 CBJ        11.2792    7.5805   13.2093 C.3         1 A02      -0.0122
     33 CAZ         9.7661    7.2163   13.3773 C.3         1 A02      -0.0440
     34 CAS         8.7166    8.3345   13.0394 C.3         1 A02      -0.0124
     35 CAR         9.2132    9.5469   12.2178 C.3         1 A02      -0.0354
     36 NAC         9.3925    9.2055   10.7936 N.4         1 A02       0.2185
     37 CCA        14.8331   12.2439    6.1677 C.2         1 A02       0.1782
     38 OAJ        14.2952   11.6206    5.2573 O.2         1 A02      -0.3969
     39 CBH        15.6176   11.5355    7.1557 C.3         1 A02       0.0374
     40 CAY        14.7002   10.6450    8.0315 C.3         1 A02      -0.0360
     41 CAT        15.4521    9.8767    9.1538 C.3         1 A02      -0.0492
     42 CAV        14.4731    9.2457   10.1946 C.3         1 A02      -0.0326
     43 CBC        14.6538    7.7147   10.4091 C.3         1 A02       0.0310
     44 NBQ        13.5390    7.2450   11.1744 N.am        1 A02      -0.2851
     45 NBT        14.6019   13.5299    6.3627 N.am        1 A02      -0.2656
     46 CCJ        13.7118   14.4072    5.6678 C.3         1 A02       0.1310
     47 CBK        12.3863   13.6556    5.2945 C.3         1 A02      -0.0092
     48 CBB        11.0960   14.5400    5.3248 C.3         1 A02      -0.0156
     49 CBF        10.0308   14.0682    6.3519 C.3         1 A02       0.0627
     50 NBP         9.1750   13.1090    5.8043 N.pl3       1 A02      -0.2723
     51 CBX         8.4248   12.2709    6.4214 C.cat       1 A02       0.2882
     52 NAB         8.3446   12.1229    7.6876 N.pl3       1 A02      -0.2849
     53 NAE         7.6720   11.5228    5.7052 N.pl3       1 A02      -0.2849
     54 CCD        14.4165   15.1184    4.6130 C.2         1 A02       0.2039
     55 OAM        13.9941   15.1180    3.4632 O.2         1 A02      -0.3944
     56 N          15.5080   15.7979    4.9434 N.am        1 A02      -0.2637
     57 CA         16.3075   16.6406    4.0948 C.3         1 A02       0.1307
     58 CB         17.7581   16.7454    4.6672 C.3         1 A02      -0.0092
     59 CG         17.9129   17.6300    5.9508 C.3         1 A02      -0.0156
     60 CD         18.6644   16.9316    7.1194 C.3         1 A02       0.0627
     61 NE         18.0491   17.1469    8.3497 N.pl3       1 A02      -0.2723
     62 CZ         18.1289   18.1637    9.1275 C.cat       1 A02       0.2882
     63 NH1        18.8780   19.1860    8.9616 N.pl3       1 A02      -0.2849
     64 NH2        17.3683   18.1450   10.1596 N.pl3       1 A02      -0.2849
     65 C          15.7382   17.9675    3.8735 C.2         1 A02       0.1992
     66 O          16.0344   18.5960    2.8660 O.2         1 A02      -0.3947
     67 NAF        14.9653   18.5752    4.7527 N.am        1 A02      -0.2990
     68 H1         12.2560    1.9270    6.8128 H           1 A02       0.0996
     69 H2         17.0817    0.3731    5.4094 H           1 A02       0.1820
     70 H3         15.9253   -0.6490    6.0664 H           1 A02       0.1820
     71 H4         17.3140    4.9740    4.2717 H           1 A02       0.1349
     72 H5         14.3586    8.5793    4.0830 H           1 A02       0.2102
     73 H6         14.0185    6.2669    1.6826 H           1 A02       0.2101
     74 H7         12.0093    7.1362    3.4107 H           1 A02       0.0673
     75 H8         13.3127    5.1493    3.4901 H           1 A02       0.0678
     76 H9         12.8998    8.1410    5.9266 H           1 A02       0.0869
     77 H10        15.5727    6.7545    4.8007 H           1 A02       0.0998
     78 H11         9.9441    3.4734   11.4295 H           1 A02       0.0502
     79 H12        11.3141    3.3491   10.3260 H           1 A02       0.0502
     80 H13         8.5086    4.4694    9.8105 H           1 A02       0.0290
     81 H14         9.2796    3.0684    9.0756 H           1 A02       0.0290
     82 H15         9.9394    4.3091    7.3105 H           1 A02       0.0267
     83 H16        11.0004    5.2368    8.3516 H           1 A02       0.0267
     84 H17         9.3749    6.9929    8.6525 H           1 A02       0.0285
     85 H18         8.0441    5.9619    8.1212 H           1 A02       0.0285
     86 H19         8.5184    7.6319    6.4300 H           1 A02       0.0520
     87 H20         8.8566    6.0312    5.7747 H           1 A02       0.0520
     88 H21        10.6002    8.2163    6.0408 H           1 A02       0.1851
     89 H22        11.7705    4.3707   12.7199 H           1 A02       0.1883
     90 H23        12.4411    5.9616   13.9891 H           1 A02       0.0800
     91 H24        11.3754    8.2717   12.3658 H           1 A02       0.0312
     92 H25        11.6037    8.1262   14.1032 H           1 A02       0.0312
     93 H26         9.6014    6.8967   14.4177 H           1 A02       0.0269
     94 H27         9.5217    6.3507   12.7545 H           1 A02       0.0269
     95 H28         8.2928    8.7187   13.9775 H           1 A02       0.0317
     96 H29         7.8818    7.8732   12.5002 H           1 A02       0.0317
     97 H30        10.1696    9.8859   12.6402 H           1 A02       0.0813
     98 H31         8.4744   10.3619   12.2815 H           1 A02       0.0813
     99 H32         9.9325    9.9545   10.3484 H           1 A02       0.1994
    100 H33         8.4664    9.1240   10.3520 H           1 A02       0.1994
    101 H34         9.9020    8.3199   10.7146 H           1 A02       0.1994
    102 H35        16.1333   12.2535    7.7944 H           1 A02       0.0502
    103 H36        16.3703   10.9036    6.6779 H           1 A02       0.0502
    104 H37        14.1996    9.9087    7.3928 H           1 A02       0.0290
    105 H38        13.9288   11.2578    8.5058 H           1 A02       0.0290
    106 H39        16.1204   10.5618    9.6859 H           1 A02       0.0267
    107 H40        16.0653    9.0937    8.6957 H           1 A02       0.0267
    108 H41        13.4369    9.4083    9.8626 H           1 A02       0.0285
    109 H42        14.5952    9.7550   11.1577 H           1 A02       0.0285
    110 H43        15.6231    7.5081   10.8813 H           1 A02       0.0520
    111 H44        14.6229    7.2151    9.4274 H           1 A02       0.0520
    112 H45        12.6796    7.3333   10.7254 H           1 A02       0.1851
    113 H46        15.1190   13.9461    7.0633 H           1 A02       0.1883
    114 H47        13.4446   15.1584    6.4175 H           1 A02       0.0800
    115 H48        12.2689   12.8134    5.9894 H           1 A02       0.0313
    116 H49        12.4846   13.2091    4.2981 H           1 A02       0.0313
    117 H50        10.6469   14.5731    4.3269 H           1 A02       0.0301
    118 H51        11.3586   15.5709    5.5738 H           1 A02       0.0301
    119 H52         9.4308   14.9290    6.6482 H           1 A02       0.0689
    120 H53        10.5540   13.7012    7.2385 H           1 A02       0.0689
    121 H54         9.1121   13.1046    4.8703 H           1 A02       0.2642
    122 H55         7.7588   11.4865    8.0377 H           1 A02       0.2615
    123 H56         8.8715   12.6199    8.2734 H           1 A02       0.2615
    124 H57         7.6924   11.5898    4.7746 H           1 A02       0.2615
    125 H58         7.1122   10.8999    6.1159 H           1 A02       0.2615
    126 H59        15.7944   15.7177    5.8677 H           1 A02       0.1883
    127 H60        16.3826   16.1432    3.1228 H           1 A02       0.0800
    128 H61        18.4252   17.1369    3.8936 H           1 A02       0.0313
    129 H62        18.1103   15.7328    4.8666 H           1 A02       0.0313
    130 H63        16.9290   17.9452    6.3104 H           1 A02       0.0301
    131 H64        18.4503   18.5469    5.6913 H           1 A02       0.0301
    132 H65        19.7125   17.2418    7.1471 H           1 A02       0.0689
    133 H66        18.6438   15.8511    6.9600 H           1 A02       0.0689
    134 H67        17.4488   16.4873    8.6148 H           1 A02       0.2642
    135 H68        18.8408   19.8766    9.5911 H           1 A02       0.2615
    136 H69        19.4404   19.2459    8.2188 H           1 A02       0.2615
    137 H70        16.8073   17.4132   10.2987 H           1 A02       0.2615
    138 H71        17.3852   18.8626   10.7545 H           1 A02       0.2615
    139 H72        14.6422   19.4740    4.5749 H           1 A02       0.1815
    140 H73        14.7247   18.1368    5.5852 H           1 A02       0.1815
@<TRIPOS>BOND
     1     2     1  ar
     2     6     1  ar
     3     3     2  ar
     4     4     3  ar
     5     4     5  ar
     6    10     4   1
     7     5     6  ar
     8     8     5   1
     9     6     7   1
    10     9     8   2
    11    10     9   1
    12    19    10   1
    13    15    11   2
    14    16    12   1
    15    17    13   1
    16    18    14   1
    17    14    19   1
    18    15    18   1
    19    27    15  am
    20    16    17   1
    21    18    16   1
    22    17    19   1
    23    20    21   2
    24    20    22   1
    25    28    20  am
    26    22    23   1
    27    23    24   1
    28    24    25   1
    29    25    26   1
    30    26    27   1
    31    29    28   1
    32    30    29   1
    33    29    32   1
    34    30    31   2
    35    44    30  am
    36    32    33   1
    37    33    34   1
    38    34    35   1
    39    35    36   1
    40    37    38   2
    41    39    37   1
    42    37    45  am
    43    40    39   1
    44    41    40   1
    45    42    41   1
    46    43    42   1
    47    43    44   1
    48    45    46   1
    49    46    47   1
    50    46    54   1
    51    47    48   1
    52    48    49   1
    53    49    50   1
    54    50    51  ar
    55    51    52  ar
    56    51    53  ar
    57    54    55   2
    58    54    56  am
    59    56    57   1
    60    57    58   1
    61    57    65   1
    62    58    59   1
    63    59    60   1
    64    60    61   1
    65    61    62  ar
    66    62    63  ar
    67    62    64  ar
    68    65    66   2
    69    65    67  am
    70     2    68   1
    71     7    69   1
    72     7    70   1
    73     9    71   1
    74    12    72   1
    75    13    73   1
    76    16    74   1
    77    17    75   1
    78    18    76   1
    79    19    77   1
    80    22    78   1
    81    22    79   1
    82    23    80   1
    83    23    81   1
    84    24    82   1
    85    24    83   1
    86    25    84   1
    87    25    85   1
    88    26    86   1
    89    26    87   1
    90    27    88   1
    91    28    89   1
    92    29    90   1
    93    32    91   1
    94    32    92   1
    95    33    93   1
    96    33    94   1
    97    34    95   1
    98    34    96   1
    99    35    97   1
   100    35    98   1
   101    36    99   1
   102    36   100   1
   103    36   101   1
   104    39   102   1
   105    39   103   1
   106    40   104   1
   107    40   105   1
   108    41   106   1
   109    41   107   1
   110    42   108   1
   111    42   109   1
   112    43   110   1
   113    43   111   1
   114    44   112   1
   115    45   113   1
   116    46   114   1
   117    47   115   1
   118    47   116   1
   119    48   117   1
   120    48   118   1
   121    49   119   1
   122    49   120   1
   123    50   121   1
   124    52   122   1
   125    52   123   1
   126    53   124   1
   127    53   125   1
   128    56   126   1
   129    57   127   1
   130    58   128   1
   131    58   129   1
   132    59   130   1
   133    59   131   1
   134    60   132   1
   135    60   133   1
   136    61   134   1
   137    63   135   1
   138    63   136   1
   139    64   137   1
   140    64   138   1
   141    67   139   1
   142    67   140   1
@<TRIPOS>SUBSTRUCTURE
     1  A02      2

