@<TRIPOS>MOLECULE
3ag9_ligand_079
   140   142
SMALL
GAST_HUCK
****
This file was generated by PARSER (from files_GN.cpp)

@<TRIPOS>ATOM
      1 N1         14.4242    1.9119   13.8033 N.ar        1 A02      -0.2698
      2 C2         13.1775    2.1916   13.3299 C.ar        1 A02       0.0533
      3 N3         12.1579    2.4511   14.1941 N.ar        1 A02      -0.2714
      4 C4         12.3831    2.4194   15.5351 C.ar        1 A02       0.1613
      5 C5         13.6479    2.1120   16.0362 C.ar        1 A02       0.1045
      6 C6         14.6942    1.8532   15.1354 C.ar        1 A02       0.1298
      7 N6         15.9304    1.5639   15.5741 N.pl3       1 A02      -0.3152
      8 N7         13.6045    2.1403   17.3751 N.2         1 A02      -0.2958
      9 C8         12.3382    2.4545   17.6942 C.2         1 A02       0.1123
     10 N9         11.5801    2.6459   16.5924 N.pl3       1 A02      -0.1918
     11 OAL        11.0191    4.9803   14.1047 O.2         1 A02      -0.3941
     12 OAN         7.4715    4.3430   16.9904 O.3         1 A02      -0.3840
     13 OAO         9.6710    4.2824   18.7067 O.3         1 A02      -0.3834
     14 OBV         9.6104    3.0751   15.2880 O.3         1 A02      -0.3181
     15 CCC         9.8438    5.2656   14.3194 C.2         1 A02       0.2080
     16 CCK         8.6932    4.8917   16.5024 C.3         1 A02       0.1295
     17 CCL         9.8952    4.3639   17.2974 C.3         1 A02       0.1408
     18 CCM         8.9980    4.3593   15.0869 C.3         1 A02       0.1788
     19 CCN        10.1840    3.0046   16.6112 C.3         1 A02       0.2035
     20 CBZ         9.9570    4.1917    8.6254 C.2         1 A02       0.1782
     21 OAI        10.0285    5.1991    7.9309 O.2         1 A02      -0.3969
     22 CBG         9.1198    4.2110    9.8112 C.3         1 A02       0.0374
     23 CAX         9.9344    4.4712   11.1153 C.3         1 A02      -0.0360
     24 CAU        10.7565    5.7979   11.1279 C.3         1 A02      -0.0492
     25 CAW         9.9712    7.0808   11.5511 C.3         1 A02      -0.0326
     26 CBD        10.0005    7.3869   13.0734 C.3         1 A02       0.0310
     27 NBR         9.3213    6.3911   13.8401 N.am        1 A02      -0.2847
     28 NBS        10.6791    3.1104    8.3433 N.am        1 A02      -0.2656
     29 CCI        11.7247    3.0364    7.3561 C.3         1 A02       0.1308
     30 CCB        12.8660    3.8868    7.6935 C.2         1 A02       0.2016
     31 OAK        12.9745    4.3345    8.8319 O.2         1 A02      -0.3945
     32 CBJ        12.1678    1.5590    7.1206 C.3         1 A02      -0.0122
     33 CAZ        12.9414    0.8719    8.2955 C.3         1 A02      -0.0440
     34 CAS        14.0933   -0.0796    7.8781 C.3         1 A02      -0.0124
     35 CAR        14.9445    0.4583    6.6970 C.3         1 A02      -0.0354
     36 NAC        16.1778   -0.3098    6.5016 N.4         1 A02       0.2185
     37 CCA        16.5855    8.8013    4.7344 C.2         1 A02       0.1782
     38 OAJ        17.3572    9.5366    5.3393 O.2         1 A02      -0.3969
     39 CBH        17.1308    7.6029    4.1200 C.3         1 A02       0.0374
     40 CAY        16.1589    6.4598    3.6996 C.3         1 A02      -0.0360
     41 CAT        15.2417    5.8899    4.8195 C.3         1 A02      -0.0492
     42 CAV        15.9630    5.0022    5.8696 C.3         1 A02      -0.0326
     43 CBC        15.0920    4.7207    7.1226 C.3         1 A02       0.0310
     44 NBQ        13.8484    4.0760    6.8148 N.am        1 A02      -0.2851
     45 NBT        15.2995    9.1272    4.6325 N.am        1 A02      -0.2656
     46 CCJ        14.5941   10.2001    5.2812 C.3         1 A02       0.1310
     47 CBK        13.8641    9.6486    6.5643 C.3         1 A02      -0.0092
     48 CBB        14.1324   10.4550    7.8695 C.3         1 A02      -0.0156
     49 CBF        15.6213   10.4693    8.3372 C.3         1 A02       0.0627
     50 NBP        15.9332    9.4887    9.2936 N.pl3       1 A02      -0.2723
     51 CBX        16.4284    8.3227    9.1125 C.cat       1 A02       0.2882
     52 NAB        16.6298    7.7590    7.9753 N.pl3       1 A02      -0.2849
     53 NAE        16.7773    7.6719   10.1608 N.pl3       1 A02      -0.2849
     54 CCD        13.6692   10.7897    4.3072 C.2         1 A02       0.2039
     55 OAM        12.7291   10.1140    3.8884 O.2         1 A02      -0.3944
     56 N          13.8698   12.0410    3.8708 N.am        1 A02      -0.2637
     57 CA         13.1357   12.8114    2.8947 C.3         1 A02       0.1307
     58 CB         12.1959   13.8631    3.5880 C.3         1 A02      -0.0092
     59 CG         11.4486   13.4578    4.8911 C.3         1 A02      -0.0156
     60 CD         10.4465   12.2722    4.7874 C.3         1 A02       0.0627
     61 NE          9.3791   12.3595    5.6825 N.pl3       1 A02      -0.2723
     62 CZ          9.3908   12.2627    6.9642 C.cat       1 A02       0.2882
     63 NH1        10.4194   12.0329    7.6947 N.pl3       1 A02      -0.2849
     64 NH2         8.2727   12.4108    7.5722 N.pl3       1 A02      -0.2849
     65 C          12.5384   12.0578    1.7867 C.2         1 A02       0.1992
     66 O          11.3302   12.0169    1.5773 O.2         1 A02      -0.3947
     67 NAF        13.3100   11.4045    0.9401 N.am        1 A02      -0.2990
     68 H1         13.0085    2.2222   12.3271 H           1 A02       0.0996
     69 H2         16.1128    1.5254   16.5283 H           1 A02       0.1820
     70 H3         16.6436    1.3791   14.9418 H           1 A02       0.1820
     71 H4         12.0061    2.5431   18.6554 H           1 A02       0.1349
     72 H5          6.8073    4.5296   16.2931 H           1 A02       0.2102
     73 H6          9.2972    3.3956   18.8943 H           1 A02       0.2101
     74 H7          8.6292    5.9834   16.5438 H           1 A02       0.0673
     75 H8         10.7431    5.0389   17.1477 H           1 A02       0.0678
     76 H9          8.0699    4.1929   14.5329 H           1 A02       0.0869
     77 H10         9.6504    2.2179   17.1538 H           1 A02       0.0998
     78 H11         8.6102    3.2460    9.8887 H           1 A02       0.0502
     79 H12         8.3422    4.9753    9.7201 H           1 A02       0.0502
     80 H13        10.6260    3.6354   11.2638 H           1 A02       0.0290
     81 H14         9.2471    4.4646   11.9652 H           1 A02       0.0290
     82 H15        11.1722    5.9619   10.1302 H           1 A02       0.0267
     83 H16        11.6162    5.6648   11.7923 H           1 A02       0.0267
     84 H17         8.9325    7.0203   11.2143 H           1 A02       0.0285
     85 H18        10.4249    7.9386   11.0419 H           1 A02       0.0285
     86 H19         9.4891    8.3372   13.2500 H           1 A02       0.0520
     87 H20        11.0396    7.5231   13.3958 H           1 A02       0.0520
     88 H21         8.3739    6.5374   13.9894 H           1 A02       0.1851
     89 H22        10.5378    2.3215    8.8929 H           1 A02       0.1883
     90 H23        11.3071    3.3849    6.4075 H           1 A02       0.0800
     91 H24        12.7801    1.5391    6.2153 H           1 A02       0.0312
     92 H25        11.2783    0.9613    6.9029 H           1 A02       0.0312
     93 H26        12.2360    0.2956    8.8934 H           1 A02       0.0269
     94 H27        13.3807    1.6131    8.9633 H           1 A02       0.0269
     95 H28        13.6952   -1.0549    7.6036 H           1 A02       0.0317
     96 H29        14.7562   -0.2287    8.7352 H           1 A02       0.0317
     97 H30        15.2281    1.4997    6.8678 H           1 A02       0.0813
     98 H31        14.3857    0.4005    5.7577 H           1 A02       0.0813
     99 H32        16.6774    0.0561    5.6823 H           1 A02       0.1994
    100 H33        15.9544   -1.2985    6.3459 H           1 A02       0.1994
    101 H34        16.7825   -0.2235    7.3257 H           1 A02       0.1994
    102 H35        17.8771    7.1833    4.7952 H           1 A02       0.0502
    103 H36        17.6659    7.9225    3.2246 H           1 A02       0.0502
    104 H37        16.7475    5.6367    3.2870 H           1 A02       0.0290
    105 H38        15.5294    6.8323    2.8883 H           1 A02       0.0290
    106 H39        14.4624    5.2870    4.3482 H           1 A02       0.0267
    107 H40        14.7441    6.7125    5.3299 H           1 A02       0.0267
    108 H41        16.8760    5.4962    6.2125 H           1 A02       0.0285
    109 H42        16.2483    4.0512    5.4114 H           1 A02       0.0285
    110 H43        14.8990    5.6680    7.6386 H           1 A02       0.0520
    111 H44        15.6571    4.0771    7.8071 H           1 A02       0.0520
    112 H45        13.7372    3.7169    5.9172 H           1 A02       0.1851
    113 H46        14.7359    8.5322    4.1137 H           1 A02       0.1883
    114 H47        15.3001   10.9762    5.5898 H           1 A02       0.0800
    115 H48        14.1641    8.6138    6.7611 H           1 A02       0.0313
    116 H49        12.7751    9.6297    6.4095 H           1 A02       0.0313
    117 H50        13.5007   10.0489    8.6727 H           1 A02       0.0301
    118 H51        13.7999   11.4894    7.6966 H           1 A02       0.0301
    119 H52        15.8152   11.4406    8.8163 H           1 A02       0.0689
    120 H53        16.2805   10.4098    7.4629 H           1 A02       0.0689
    121 H54        15.8602    9.7636   10.1861 H           1 A02       0.2642
    122 H55        17.0125    6.9103    7.9513 H           1 A02       0.2615
    123 H56        16.4068    8.1983    7.1810 H           1 A02       0.2615
    124 H57        16.6739    8.0733   10.9964 H           1 A02       0.2615
    125 H58        17.1557    6.8247   10.0814 H           1 A02       0.2615
    126 H59        14.6115   12.5301    4.2789 H           1 A02       0.1883
    127 H60        13.9069   13.4180    2.4016 H           1 A02       0.0800
    128 H61        11.4630   14.2393    2.8605 H           1 A02       0.0313
    129 H62        12.8232   14.7215    3.8572 H           1 A02       0.0313
    130 H63        10.8976   14.3416    5.2279 H           1 A02       0.0301
    131 H64        12.1985   13.2330    5.6522 H           1 A02       0.0301
    132 H65        10.9709   11.3247    4.9312 H           1 A02       0.0689
    133 H66        10.0117   12.2719    3.7809 H           1 A02       0.0689
    134 H67         8.5396   12.5173    5.3038 H           1 A02       0.2642
    135 H68        10.3287   12.0088    8.6257 H           1 A02       0.2615
    136 H69        11.2556   11.9034    7.3042 H           1 A02       0.2615
    137 H70         7.4947   12.5864    7.0877 H           1 A02       0.2615
    138 H71         8.2624   12.3973    8.5052 H           1 A02       0.2615
    139 H72        12.9096   10.9294    0.1869 H           1 A02       0.1815
    140 H73        14.2779   11.4225    1.0495 H           1 A02       0.1815
@<TRIPOS>BOND
     1     2     1  ar
     2     6     1  ar
     3     3     2  ar
     4     4     3  ar
     5     4     5  ar
     6    10     4   1
     7     5     6  ar
     8     8     5   1
     9     6     7   1
    10     9     8   2
    11    10     9   1
    12    19    10   1
    13    15    11   2
    14    16    12   1
    15    17    13   1
    16    18    14   1
    17    14    19   1
    18    15    18   1
    19    27    15  am
    20    16    17   1
    21    18    16   1
    22    17    19   1
    23    20    21   2
    24    20    22   1
    25    28    20  am
    26    22    23   1
    27    23    24   1
    28    24    25   1
    29    25    26   1
    30    26    27   1
    31    29    28   1
    32    30    29   1
    33    29    32   1
    34    30    31   2
    35    44    30  am
    36    32    33   1
    37    33    34   1
    38    34    35   1
    39    35    36   1
    40    37    38   2
    41    39    37   1
    42    37    45  am
    43    40    39   1
    44    41    40   1
    45    42    41   1
    46    43    42   1
    47    43    44   1
    48    45    46   1
    49    46    47   1
    50    46    54   1
    51    47    48   1
    52    48    49   1
    53    49    50   1
    54    50    51  ar
    55    51    52  ar
    56    51    53  ar
    57    54    55   2
    58    54    56  am
    59    56    57   1
    60    57    58   1
    61    57    65   1
    62    58    59   1
    63    59    60   1
    64    60    61   1
    65    61    62  ar
    66    62    63  ar
    67    62    64  ar
    68    65    66   2
    69    65    67  am
    70     2    68   1
    71     7    69   1
    72     7    70   1
    73     9    71   1
    74    12    72   1
    75    13    73   1
    76    16    74   1
    77    17    75   1
    78    18    76   1
    79    19    77   1
    80    22    78   1
    81    22    79   1
    82    23    80   1
    83    23    81   1
    84    24    82   1
    85    24    83   1
    86    25    84   1
    87    25    85   1
    88    26    86   1
    89    26    87   1
    90    27    88   1
    91    28    89   1
    92    29    90   1
    93    32    91   1
    94    32    92   1
    95    33    93   1
    96    33    94   1
    97    34    95   1
    98    34    96   1
    99    35    97   1
   100    35    98   1
   101    36    99   1
   102    36   100   1
   103    36   101   1
   104    39   102   1
   105    39   103   1
   106    40   104   1
   107    40   105   1
   108    41   106   1
   109    41   107   1
   110    42   108   1
   111    42   109   1
   112    43   110   1
   113    43   111   1
   114    44   112   1
   115    45   113   1
   116    46   114   1
   117    47   115   1
   118    47   116   1
   119    48   117   1
   120    48   118   1
   121    49   119   1
   122    49   120   1
   123    50   121   1
   124    52   122   1
   125    52   123   1
   126    53   124   1
   127    53   125   1
   128    56   126   1
   129    57   127   1
   130    58   128   1
   131    58   129   1
   132    59   130   1
   133    59   131   1
   134    60   132   1
   135    60   133   1
   136    61   134   1
   137    63   135   1
   138    63   136   1
   139    64   137   1
   140    64   138   1
   141    67   139   1
   142    67   140   1
@<TRIPOS>SUBSTRUCTURE
     1  A02      2

