@<TRIPOS>MOLECULE
3ag9_ligand_085
   140   142
SMALL
GAST_HUCK
****
This file was generated by PARSER (from files_GN.cpp)

@<TRIPOS>ATOM
      1 N1         12.4316    0.8426    7.6745 N.ar        1 A02      -0.2698
      2 C2         11.9523    2.1039    7.4898 C.ar        1 A02       0.0533
      3 N3         12.6813    3.1796    7.8968 N.ar        1 A02      -0.2714
      4 C4         13.8940    2.9871    8.4754 C.ar        1 A02       0.1613
      5 C5         14.4070    1.7084    8.6686 C.ar        1 A02       0.1045
      6 C6         13.6394    0.6092    8.2566 C.ar        1 A02       0.1298
      7 N6         14.0771   -0.6446    8.4407 N.pl3       1 A02      -0.3152
      8 N7         15.6077    1.8088    9.2565 N.2         1 A02      -0.2958
      9 C8         15.8341    3.1228    9.4293 C.2         1 A02       0.1123
     10 N9         14.7949    3.8557    8.9663 N.pl3       1 A02      -0.1918
     11 OAL        16.9538    8.9918    7.8523 O.2         1 A02      -0.3941
     12 OAN        14.5595    8.3443   10.6254 O.3         1 A02      -0.3840
     13 OAO        13.2982    5.9971   10.9040 O.3         1 A02      -0.3834
     14 OBV        15.7851    5.9040    8.3468 O.3         1 A02      -0.3181
     15 CCC        17.0098    7.9406    8.4782 C.2         1 A02       0.2080
     16 CCK        15.3754    7.2266   10.2756 C.3         1 A02       0.1295
     17 CCL        14.6404    5.8790   10.4280 C.3         1 A02       0.1408
     18 CCM        15.7557    7.2717    8.7766 C.3         1 A02       0.1788
     19 CCN        14.6715    5.2827    9.0006 C.3         1 A02       0.2035
     20 CBZ        20.0778    8.8646    4.0516 C.2         1 A02       0.1782
     21 OAI        20.1868    7.6712    3.8041 O.2         1 A02      -0.3969
     22 CBG        21.2607    9.5964    4.4782 C.3         1 A02       0.0374
     23 CAX        21.2447   10.1132    5.9433 C.3         1 A02      -0.0360
     24 CAU        21.2095    9.0232    7.0522 C.3         1 A02      -0.0492
     25 CAW        19.8429    8.2940    7.2057 C.3         1 A02      -0.0326
     26 CBD        19.4747    7.9953    8.6864 C.3         1 A02       0.0310
     27 NBR        18.1711    7.4184    8.8702 N.am        1 A02      -0.2847
     28 NBS        18.9365    9.5091    3.8318 N.am        1 A02      -0.2656
     29 CCI        17.7415    8.9590    3.2383 C.3         1 A02       0.1308
     30 CCB        16.5746    9.6636    3.7593 C.2         1 A02       0.2016
     31 OAK        15.8762   10.3470    3.0187 O.2         1 A02      -0.3945
     32 CBJ        17.9189    8.9871    1.6834 C.3         1 A02      -0.0122
     33 CAZ        16.7674    8.3059    0.8707 C.3         1 A02      -0.0440
     34 CAS        16.0998    9.2370   -0.1785 C.3         1 A02      -0.0124
     35 CAR        14.8453    8.6367   -0.8583 C.3         1 A02      -0.0354
     36 NAC        15.1643    7.5389   -1.7781 N.4         1 A02       0.2185
     37 CCA        18.2113   14.6554    4.4473 C.2         1 A02       0.1782
     38 OAJ        17.0800   14.9837    4.1107 O.2         1 A02      -0.3969
     39 CBH        18.3922   13.5290    5.3478 C.3         1 A02       0.0374
     40 CAY        17.3934   12.3530    5.1612 C.3         1 A02      -0.0360
     41 CAT        15.9458   12.6092    5.6947 C.3         1 A02      -0.0492
     42 CAV        15.3071   11.4232    6.4688 C.3         1 A02      -0.0326
     43 CBC        15.1105   10.0836    5.7033 C.3         1 A02       0.0310
     44 NBQ        16.2744    9.5593    5.0531 N.am        1 A02      -0.2851
     45 NBT        19.2648   15.3909    4.1176 N.am        1 A02      -0.2656
     46 CCJ        19.3167   16.6018    3.3415 C.3         1 A02       0.1310
     47 CBK        18.5229   17.8029    3.9614 C.3         1 A02      -0.0092
     48 CBB        18.5304   17.8979    5.5274 C.3         1 A02      -0.0156
     49 CBF        17.1453   17.5792    6.1623 C.3         1 A02       0.0627
     50 NBP        17.1060   17.5833    7.5634 N.pl3       1 A02      -0.2723
     51 CBX        17.0855   18.5852    8.3631 C.cat       1 A02       0.2882
     52 NAB        16.9753   18.3564    9.6152 N.pl3       1 A02      -0.2849
     53 NAE        17.1443   19.8095    7.9985 N.pl3       1 A02      -0.2849
     54 CCD        18.9489   16.3263    1.9504 C.2         1 A02       0.2039
     55 OAM        17.7899   16.0070    1.7075 O.2         1 A02      -0.3944
     56 N          19.8462   16.3662    0.9657 N.am        1 A02      -0.2637
     57 CA         19.6136   15.9986   -0.4108 C.3         1 A02       0.1307
     58 CB         20.8971   16.0913   -1.2935 C.3         1 A02      -0.0092
     59 CG         21.5121   17.4974   -1.5613 C.3         1 A02      -0.0156
     60 CD         22.4458   18.0539   -0.4477 C.3         1 A02       0.0627
     61 NE         21.8439   18.9891    0.4008 N.pl3       1 A02      -0.2723
     62 CZ         21.5366   20.2030    0.1271 C.cat       1 A02       0.2882
     63 NH1        21.6955   20.7578   -1.0139 N.pl3       1 A02      -0.2849
     64 NH2        21.0599   20.9292    1.0630 N.pl3       1 A02      -0.2849
     65 C          18.4903   16.7110   -1.0177 C.2         1 A02       0.1992
     66 O          18.3602   17.9246   -0.9044 O.2         1 A02      -0.3947
     67 NAF        17.5468   16.0662   -1.6796 N.am        1 A02      -0.2990
     68 H1         11.0417    2.2464    7.0505 H           1 A02       0.0996
     69 H2         14.9323   -0.7953    8.8705 H           1 A02       0.1820
     70 H3         13.5312   -1.3981    8.1694 H           1 A02       0.1820
     71 H4         16.6810    3.5032    9.8608 H           1 A02       0.1349
     72 H5         15.1588    8.9526   11.1141 H           1 A02       0.2102
     73 H6         12.9685    5.0698   10.9878 H           1 A02       0.2101
     74 H7         16.2644    7.2259   10.9146 H           1 A02       0.0673
     75 H8         15.1897    5.2412   11.1279 H           1 A02       0.0678
     76 H9         14.9494    7.7719    8.2234 H           1 A02       0.0869
     77 H10        13.7627    5.5873    8.4643 H           1 A02       0.0998
     78 H11        21.3679   10.4578    3.8116 H           1 A02       0.0502
     79 H12        22.1572    8.9841    4.3409 H           1 A02       0.0502
     80 H13        20.4136   10.8064    6.0880 H           1 A02       0.0290
     81 H14        22.1623   10.6911    6.0940 H           1 A02       0.0290
     82 H15        21.4578    9.5161    7.9968 H           1 A02       0.0267
     83 H16        21.9942    8.2855    6.8581 H           1 A02       0.0267
     84 H17        19.8780    7.3450    6.6595 H           1 A02       0.0285
     85 H18        19.0626    8.9144    6.7543 H           1 A02       0.0285
     86 H19        19.5333    8.9189    9.2675 H           1 A02       0.0520
     87 H20        20.2112    7.2970    9.0969 H           1 A02       0.0520
     88 H21        18.1314    6.6025    9.4000 H           1 A02       0.1851
     89 H22        18.9347   10.4654    4.0003 H           1 A02       0.1883
     90 H23        17.6254    7.9081    3.5263 H           1 A02       0.0800
     91 H24        18.8508    8.4640    1.4354 H           1 A02       0.0312
     92 H25        18.0582   10.0237    1.3616 H           1 A02       0.0312
     93 H26        15.9927    7.9385    1.5473 H           1 A02       0.0269
     94 H27        17.1714    7.4318    0.3489 H           1 A02       0.0269
     95 H28        16.8272    9.4988   -0.9498 H           1 A02       0.0317
     96 H29        15.7927   10.1596    0.3161 H           1 A02       0.0317
     97 H30        14.3427    9.4132   -1.4333 H           1 A02       0.0813
     98 H31        14.1478    8.2662   -0.1038 H           1 A02       0.0813
     99 H32        14.3014    7.1647   -2.1776 H           1 A02       0.1994
    100 H33        15.6502    6.7901   -1.2794 H           1 A02       0.1994
    101 H34        15.7608    7.8800   -2.5324 H           1 A02       0.1994
    102 H35        18.3384   13.8917    6.3769 H           1 A02       0.0502
    103 H36        19.4014   13.1199    5.2088 H           1 A02       0.0502
    104 H37        17.8168   11.4812    5.6642 H           1 A02       0.0290
    105 H38        17.3465   12.1184    4.0968 H           1 A02       0.0290
    106 H39        15.2900   12.8886    4.8651 H           1 A02       0.0267
    107 H40        15.9642   13.4578    6.3860 H           1 A02       0.0267
    108 H41        14.3160   11.7373    6.8164 H           1 A02       0.0285
    109 H42        15.9050   11.2391    7.3604 H           1 A02       0.0285
    110 H43        14.2842   10.1927    4.9892 H           1 A02       0.0520
    111 H44        14.8136    9.3292    6.4411 H           1 A02       0.0520
    112 H45        16.8480    8.9896    5.5918 H           1 A02       0.1851
    113 H46        20.1191   15.0815    4.4589 H           1 A02       0.1883
    114 H47        20.3691   16.9006    3.3593 H           1 A02       0.0800
    115 H48        17.4901   17.7701    3.6008 H           1 A02       0.0313
    116 H49        18.9511   18.7277    3.5595 H           1 A02       0.0313
    117 H50        18.8246   18.9099    5.8294 H           1 A02       0.0301
    118 H51        19.2763   17.2182    5.9495 H           1 A02       0.0301
    119 H52        16.8497   16.5701    5.8693 H           1 A02       0.0689
    120 H53        16.3912   18.2719    5.7712 H           1 A02       0.0689
    121 H54        17.0237   16.7436    7.9705 H           1 A02       0.2642
    122 H55        16.9561   19.0788   10.2104 H           1 A02       0.2615
    123 H56        16.8990   17.4790    9.9365 H           1 A02       0.2615
    124 H57        17.2145   20.0396    7.0929 H           1 A02       0.2615
    125 H58        17.0901   20.4832    8.6461 H           1 A02       0.2615
    126 H59        20.7545   16.5917    1.2097 H           1 A02       0.1883
    127 H60        19.3605   14.9258   -0.3862 H           1 A02       0.0800
    128 H61        20.6512   15.6422   -2.2681 H           1 A02       0.0313
    129 H62        21.6614   15.4515   -0.8534 H           1 A02       0.0313
    130 H63        20.7152   18.2083   -1.7953 H           1 A02       0.0301
    131 H64        22.1056   17.4077   -2.4799 H           1 A02       0.0301
    132 H65        23.3286   18.5059   -0.9088 H           1 A02       0.0689
    133 H66        22.8131   17.2296    0.1685 H           1 A02       0.0689
    134 H67        21.7017   18.7150    1.2831 H           1 A02       0.2642
    135 H68        21.4685   21.6556   -1.1258 H           1 A02       0.2615
    136 H69        22.0528   20.2789   -1.7323 H           1 A02       0.2615
    137 H70        20.9398   20.5762    1.9224 H           1 A02       0.2615
    138 H71        20.8498   21.8216    0.8811 H           1 A02       0.2615
    139 H72        16.8055   16.5585   -2.0747 H           1 A02       0.1815
    140 H73        17.6005   15.0975   -1.7830 H           1 A02       0.1815
@<TRIPOS>BOND
     1     2     1  ar
     2     6     1  ar
     3     3     2  ar
     4     4     3  ar
     5     4     5  ar
     6    10     4   1
     7     5     6  ar
     8     8     5   1
     9     6     7   1
    10     9     8   2
    11    10     9   1
    12    19    10   1
    13    15    11   2
    14    16    12   1
    15    17    13   1
    16    18    14   1
    17    14    19   1
    18    15    18   1
    19    27    15  am
    20    16    17   1
    21    18    16   1
    22    17    19   1
    23    20    21   2
    24    20    22   1
    25    28    20  am
    26    22    23   1
    27    23    24   1
    28    24    25   1
    29    25    26   1
    30    26    27   1
    31    29    28   1
    32    30    29   1
    33    29    32   1
    34    30    31   2
    35    44    30  am
    36    32    33   1
    37    33    34   1
    38    34    35   1
    39    35    36   1
    40    37    38   2
    41    39    37   1
    42    37    45  am
    43    40    39   1
    44    41    40   1
    45    42    41   1
    46    43    42   1
    47    43    44   1
    48    45    46   1
    49    46    47   1
    50    46    54   1
    51    47    48   1
    52    48    49   1
    53    49    50   1
    54    50    51  ar
    55    51    52  ar
    56    51    53  ar
    57    54    55   2
    58    54    56  am
    59    56    57   1
    60    57    58   1
    61    57    65   1
    62    58    59   1
    63    59    60   1
    64    60    61   1
    65    61    62  ar
    66    62    63  ar
    67    62    64  ar
    68    65    66   2
    69    65    67  am
    70     2    68   1
    71     7    69   1
    72     7    70   1
    73     9    71   1
    74    12    72   1
    75    13    73   1
    76    16    74   1
    77    17    75   1
    78    18    76   1
    79    19    77   1
    80    22    78   1
    81    22    79   1
    82    23    80   1
    83    23    81   1
    84    24    82   1
    85    24    83   1
    86    25    84   1
    87    25    85   1
    88    26    86   1
    89    26    87   1
    90    27    88   1
    91    28    89   1
    92    29    90   1
    93    32    91   1
    94    32    92   1
    95    33    93   1
    96    33    94   1
    97    34    95   1
    98    34    96   1
    99    35    97   1
   100    35    98   1
   101    36    99   1
   102    36   100   1
   103    36   101   1
   104    39   102   1
   105    39   103   1
   106    40   104   1
   107    40   105   1
   108    41   106   1
   109    41   107   1
   110    42   108   1
   111    42   109   1
   112    43   110   1
   113    43   111   1
   114    44   112   1
   115    45   113   1
   116    46   114   1
   117    47   115   1
   118    47   116   1
   119    48   117   1
   120    48   118   1
   121    49   119   1
   122    49   120   1
   123    50   121   1
   124    52   122   1
   125    52   123   1
   126    53   124   1
   127    53   125   1
   128    56   126   1
   129    57   127   1
   130    58   128   1
   131    58   129   1
   132    59   130   1
   133    59   131   1
   134    60   132   1
   135    60   133   1
   136    61   134   1
   137    63   135   1
   138    63   136   1
   139    64   137   1
   140    64   138   1
   141    67   139   1
   142    67   140   1
@<TRIPOS>SUBSTRUCTURE
     1  A02      2

