@<TRIPOS>MOLECULE
3ag9_ligand_039
   140   142
SMALL
GAST_HUCK
****
This file was generated by PARSER (from files_GN.cpp)

@<TRIPOS>ATOM
      1 N1          9.9416    7.1853    7.1674 N.ar        1 A02      -0.2698
      2 C2         10.7026    7.4262    6.0606 C.ar        1 A02       0.0533
      3 N3         10.2097    7.1595    4.8259 N.ar        1 A02      -0.2714
      4 C4          8.9566    6.6476    4.6820 C.ar        1 A02       0.1613
      5 C5          8.1699    6.3952    5.8022 C.ar        1 A02       0.1045
      6 C6          8.6868    6.6714    7.0796 C.ar        1 A02       0.1298
      7 N6          7.9772    6.4501    8.1957 N.pl3       1 A02      -0.3152
      8 N7          6.9849    5.9206    5.3959 N.2         1 A02      -0.2958
      9 C8          7.0439    5.8765    4.0489 C.2         1 A02       0.1123
     10 N9          8.2334    6.3176    3.5946 N.pl3       1 A02      -0.1918
     11 OAL        11.4550    3.6502    1.2092 O.2         1 A02      -0.3941
     12 OAN        11.3979    7.9656    0.3839 O.3         1 A02      -0.3840
     13 OAO         8.7294    8.3502    0.7214 O.3         1 A02      -0.3834
     14 OBV         9.4969    5.2827    1.9153 O.3         1 A02      -0.3181
     15 CCC        11.6110    4.8270    0.8854 C.2         1 A02       0.2080
     16 CCK        10.7756    7.1798    1.4006 C.3         1 A02       0.1295
     17 CCL         9.3804    7.6894    1.8090 C.3         1 A02       0.1408
     18 CCM        10.4727    5.7325    0.9598 C.3         1 A02       0.1788
     19 CCN         8.6332    6.3880    2.2082 C.3         1 A02       0.2035
     20 CBZ        19.3804    4.8926    3.0115 C.2         1 A02       0.1782
     21 OAI        20.0511    4.7783    1.9930 O.2         1 A02      -0.3969
     22 CBG        17.9213    4.9382    2.9374 C.3         1 A02       0.0374
     23 CAX        17.3273    5.2902    1.5430 C.3         1 A02      -0.0360
     24 CAU        15.7740    5.3042    1.5078 C.3         1 A02      -0.0492
     25 CAW        15.2144    5.1896    0.0587 C.3         1 A02      -0.0326
     26 CBD        13.8642    4.4389   -0.0509 C.3         1 A02       0.0310
     27 NBR        12.7403    5.2432    0.3209 N.am        1 A02      -0.2847
     28 NBS        19.9695    5.0118    4.2024 N.am        1 A02      -0.2656
     29 CCI        21.3872    5.0810    4.4764 C.3         1 A02       0.1308
     30 CCB        21.7416    6.3634    5.0780 C.2         1 A02       0.2016
     31 OAK        20.9147    6.9660    5.7568 O.2         1 A02      -0.3945
     32 CBJ        21.8585    3.8721    5.3457 C.3         1 A02      -0.0122
     33 CAZ        21.0533    3.6323    6.6513 C.3         1 A02      -0.0440
     34 CAS        21.7842    2.6948    7.6516 C.3         1 A02      -0.0124
     35 CAR        21.0351    2.5324    8.9989 C.3         1 A02      -0.0354
     36 NAC        21.0142    3.7712    9.7912 N.4         1 A02       0.2185
     37 CCA        19.7569   12.4841    4.1045 C.2         1 A02       0.1782
     38 OAJ        20.6100   13.3414    3.9165 O.2         1 A02      -0.3969
     39 CBH        20.1604   11.1005    3.8942 C.3         1 A02       0.0374
     40 CAY        21.6431   10.8205    4.2861 C.3         1 A02      -0.0360
     41 CAT        22.2614    9.6289    3.4953 C.3         1 A02      -0.0492
     42 CAV        23.6018    9.0955    4.0822 C.3         1 A02      -0.0326
     43 CBC        23.4366    8.1511    5.2977 C.3         1 A02       0.0310
     44 NBQ        22.9473    6.8727    4.8721 N.am        1 A02      -0.2851
     45 NBT        18.5315   12.7988    4.5122 N.am        1 A02      -0.2656
     46 CCJ        18.0442   14.1249    4.8057 C.3         1 A02       0.1310
     47 CBK        18.4430   14.4908    6.2669 C.3         1 A02      -0.0092
     48 CBB        18.5642   16.0214    6.5227 C.3         1 A02      -0.0156
     49 CBF        19.1855   16.3962    7.9011 C.3         1 A02       0.0627
     50 NBP        18.2130   16.8903    8.7732 N.pl3       1 A02      -0.2723
     51 CBX        18.1421   18.0395    9.3343 C.cat       1 A02       0.2882
     52 NAB        18.9636   19.0084    9.1842 N.pl3       1 A02      -0.2849
     53 NAE        17.1527   18.2482   10.1116 N.pl3       1 A02      -0.2849
     54 CCD        16.6246   14.1913    4.4616 C.2         1 A02       0.2039
     55 OAM        16.3235   13.9691    3.2903 O.2         1 A02      -0.3944
     56 N          15.6384   14.3944    5.3476 N.am        1 A02      -0.2637
     57 CA         14.2226   14.4576    5.0934 C.3         1 A02       0.1307
     58 CB         13.4439   14.1920    6.4295 C.3         1 A02      -0.0092
     59 CG         11.9298   13.8741    6.2280 C.3         1 A02      -0.0156
     60 CD         11.1079   13.8023    7.5407 C.3         1 A02       0.0627
     61 NE         10.8095   12.5266    8.0191 N.pl3       1 A02      -0.2723
     62 CZ         10.0335   11.6483    7.5044 C.cat       1 A02       0.2882
     63 NH1         9.4472   11.7608    6.3675 N.pl3       1 A02      -0.2849
     64 NH2         9.8067   10.5839    8.1796 N.pl3       1 A02      -0.2849
     65 C          13.7694   13.5624    4.0252 C.2         1 A02       0.1992
     66 O          13.9356   12.3570    4.1141 O.2         1 A02      -0.3947
     67 NAF        13.1808   14.0291    2.9497 N.am        1 A02      -0.2990
     68 H1         11.6401    7.8139    6.1648 H           1 A02       0.0996
     69 H2          7.0867    6.0636    8.1485 H           1 A02       0.1820
     70 H3          8.3609    6.6637    9.0615 H           1 A02       0.1820
     71 H4          6.2716    5.5412    3.4647 H           1 A02       0.1349
     72 H5         10.7789    7.9567   -0.3785 H           1 A02       0.2102
     73 H6          7.8849    8.6828    1.0858 H           1 A02       0.2101
     74 H7         11.4370    7.1738    2.2721 H           1 A02       0.0673
     75 H8          9.4571    8.4017    2.6318 H           1 A02       0.0678
     76 H9         10.0043    5.7452   -0.0313 H           1 A02       0.0869
     77 H10         7.7491    6.2680    1.5699 H           1 A02       0.0998
     78 H11        17.5661    5.6778    3.6598 H           1 A02       0.0502
     79 H12        17.5463    3.9592    3.2437 H           1 A02       0.0502
     80 H13        17.6788    4.5445    0.8243 H           1 A02       0.0290
     81 H14        17.7032    6.2667    1.2241 H           1 A02       0.0290
     82 H15        15.3950    6.2163    1.9762 H           1 A02       0.0267
     83 H16        15.4145    4.4540    2.0844 H           1 A02       0.0267
     84 H17        15.9383    4.6420   -0.5484 H           1 A02       0.0285
     85 H18        15.1169    6.1881   -0.3701 H           1 A02       0.0285
     86 H19        13.9204    3.5072    0.5156 H           1 A02       0.0520
     87 H20        13.7177    4.1653   -1.1018 H           1 A02       0.0520
     88 H21        12.7648    6.1686    0.0239 H           1 A02       0.1851
     89 H22        19.3795    5.1399    4.9652 H           1 A02       0.1883
     90 H23        21.9334    4.9926    3.5329 H           1 A02       0.0800
     91 H24        22.9138    4.0177    5.5996 H           1 A02       0.0312
     92 H25        21.7975    2.9644    4.7337 H           1 A02       0.0312
     93 H26        20.0861    3.1886    6.3958 H           1 A02       0.0269
     94 H27        20.8728    4.5885    7.1439 H           1 A02       0.0269
     95 H28        22.7880    3.0815    7.8535 H           1 A02       0.0317
     96 H29        21.8887    1.7020    7.2023 H           1 A02       0.0317
     97 H30        21.5284    1.7613    9.5978 H           1 A02       0.0813
     98 H31        20.0046    2.2161    8.8176 H           1 A02       0.0813
     99 H32        20.5120    3.6091   10.6680 H           1 A02       0.1994
    100 H33        20.5342    4.5063    9.2712 H           1 A02       0.1994
    101 H34        21.9733    4.0683    9.9929 H           1 A02       0.1994
    102 H35        20.0129   10.8718    2.8318 H           1 A02       0.0502
    103 H36        19.5157   10.4191    4.4636 H           1 A02       0.0502
    104 H37        21.6970   10.6131    5.3598 H           1 A02       0.0290
    105 H38        22.2694   11.6953    4.0872 H           1 A02       0.0290
    106 H39        22.4555    9.9703    2.4737 H           1 A02       0.0267
    107 H40        21.5342    8.8149    3.4269 H           1 A02       0.0267
    108 H41        24.2315    9.9388    4.3681 H           1 A02       0.0285
    109 H42        24.1364    8.5526    3.2952 H           1 A02       0.0285
    110 H43        22.7984    8.6174    6.0496 H           1 A02       0.0520
    111 H44        24.4128    7.9890    5.7555 H           1 A02       0.0520
    112 H45        23.5491    6.3523    4.3116 H           1 A02       0.1851
    113 H46        17.9214   12.0668    4.6938 H           1 A02       0.1883
    114 H47        18.5386   14.8508    4.1492 H           1 A02       0.0800
    115 H48        19.4180   14.0350    6.4519 H           1 A02       0.0313
    116 H49        17.7398   14.0506    6.9813 H           1 A02       0.0313
    117 H50        17.5715   16.4653    6.4064 H           1 A02       0.0301
    118 H51        19.1968   16.4490    5.7420 H           1 A02       0.0301
    119 H52        20.0004   17.1090    7.7487 H           1 A02       0.0689
    120 H53        19.6219   15.5232    8.3886 H           1 A02       0.0689
    121 H54        17.5099   16.3097    8.9560 H           1 A02       0.2642
    122 H55        18.8303   19.7939    9.6724 H           1 A02       0.2615
    123 H56        19.7018   18.9304    8.6193 H           1 A02       0.2615
    124 H57        16.5342   17.5638   10.2704 H           1 A02       0.2615
    125 H58        17.0673   19.0799   10.5295 H           1 A02       0.2615
    126 H59        15.9056   14.5909    6.2638 H           1 A02       0.1883
    127 H60        14.0115   15.4961    4.8127 H           1 A02       0.0800
    128 H61        13.5048   15.1034    7.0462 H           1 A02       0.0313
    129 H62        13.9228   13.3711    6.9877 H           1 A02       0.0313
    130 H63        11.8177   12.9328    5.6770 H           1 A02       0.0301
    131 H64        11.5027   14.6723    5.6103 H           1 A02       0.0301
    132 H65        10.1735   14.3519    7.4120 H           1 A02       0.0689
    133 H66        11.6561   14.3156    8.3310 H           1 A02       0.0689
    134 H67        11.1490   12.3036    8.8619 H           1 A02       0.2642
    135 H68         8.8768   11.0874    6.0668 H           1 A02       0.2615
    136 H69         9.5573   12.5351    5.8626 H           1 A02       0.2615
    137 H70        10.1762   10.5023    9.0320 H           1 A02       0.2615
    138 H71         9.2416    9.9186    7.8495 H           1 A02       0.2615
    139 H72        12.8902   13.4289    2.2638 H           1 A02       0.1815
    140 H73        13.0733   14.9759    2.8266 H           1 A02       0.1815
@<TRIPOS>BOND
     1     2     1  ar
     2     6     1  ar
     3     3     2  ar
     4     4     3  ar
     5     4     5  ar
     6    10     4   1
     7     5     6  ar
     8     8     5   1
     9     6     7   1
    10     9     8   2
    11    10     9   1
    12    19    10   1
    13    15    11   2
    14    16    12   1
    15    17    13   1
    16    18    14   1
    17    14    19   1
    18    15    18   1
    19    27    15  am
    20    16    17   1
    21    18    16   1
    22    17    19   1
    23    20    21   2
    24    20    22   1
    25    28    20  am
    26    22    23   1
    27    23    24   1
    28    24    25   1
    29    25    26   1
    30    26    27   1
    31    29    28   1
    32    30    29   1
    33    29    32   1
    34    30    31   2
    35    44    30  am
    36    32    33   1
    37    33    34   1
    38    34    35   1
    39    35    36   1
    40    37    38   2
    41    39    37   1
    42    37    45  am
    43    40    39   1
    44    41    40   1
    45    42    41   1
    46    43    42   1
    47    43    44   1
    48    45    46   1
    49    46    47   1
    50    46    54   1
    51    47    48   1
    52    48    49   1
    53    49    50   1
    54    50    51  ar
    55    51    52  ar
    56    51    53  ar
    57    54    55   2
    58    54    56  am
    59    56    57   1
    60    57    58   1
    61    57    65   1
    62    58    59   1
    63    59    60   1
    64    60    61   1
    65    61    62  ar
    66    62    63  ar
    67    62    64  ar
    68    65    66   2
    69    65    67  am
    70     2    68   1
    71     7    69   1
    72     7    70   1
    73     9    71   1
    74    12    72   1
    75    13    73   1
    76    16    74   1
    77    17    75   1
    78    18    76   1
    79    19    77   1
    80    22    78   1
    81    22    79   1
    82    23    80   1
    83    23    81   1
    84    24    82   1
    85    24    83   1
    86    25    84   1
    87    25    85   1
    88    26    86   1
    89    26    87   1
    90    27    88   1
    91    28    89   1
    92    29    90   1
    93    32    91   1
    94    32    92   1
    95    33    93   1
    96    33    94   1
    97    34    95   1
    98    34    96   1
    99    35    97   1
   100    35    98   1
   101    36    99   1
   102    36   100   1
   103    36   101   1
   104    39   102   1
   105    39   103   1
   106    40   104   1
   107    40   105   1
   108    41   106   1
   109    41   107   1
   110    42   108   1
   111    42   109   1
   112    43   110   1
   113    43   111   1
   114    44   112   1
   115    45   113   1
   116    46   114   1
   117    47   115   1
   118    47   116   1
   119    48   117   1
   120    48   118   1
   121    49   119   1
   122    49   120   1
   123    50   121   1
   124    52   122   1
   125    52   123   1
   126    53   124   1
   127    53   125   1
   128    56   126   1
   129    57   127   1
   130    58   128   1
   131    58   129   1
   132    59   130   1
   133    59   131   1
   134    60   132   1
   135    60   133   1
   136    61   134   1
   137    63   135   1
   138    63   136   1
   139    64   137   1
   140    64   138   1
   141    67   139   1
   142    67   140   1
@<TRIPOS>SUBSTRUCTURE
     1  A02      2

