@<TRIPOS>MOLECULE
3ag9_ligand_050
   140   142
SMALL
GAST_HUCK
****
This file was generated by PARSER (from files_GN.cpp)

@<TRIPOS>ATOM
      1 N1          4.1695    6.6923   10.9718 N.ar        1 A02      -0.2698
      2 C2          5.5272    6.7919   11.0011 C.ar        1 A02       0.0533
      3 N3          6.1975    6.6558   12.1782 N.ar        1 A02      -0.2714
      4 C4          5.5159    6.4239   13.3277 C.ar        1 A02       0.1613
      5 C5          4.1234    6.3111   13.3177 C.ar        1 A02       0.1045
      6 C6          3.4417    6.4520   12.0969 C.ar        1 A02       0.1298
      7 N6          2.1013    6.3642   12.0175 N.pl3       1 A02      -0.3152
      8 N7          3.7054    6.0875   14.5704 N.2         1 A02      -0.2958
      9 C8          4.8086    6.0673   15.3387 C.2         1 A02       0.1123
     10 N9          5.9256    6.2621   14.6020 N.pl3       1 A02      -0.1918
     11 OAL        10.7266    4.9038   12.7023 O.2         1 A02      -0.3941
     12 OAN         9.9797    3.8665   15.6527 O.3         1 A02      -0.3840
     13 OAO         7.9719    5.0138   17.1182 O.3         1 A02      -0.3834
     14 OBV         8.2229    6.6306   14.1128 O.3         1 A02      -0.3181
     15 CCC        10.2676    5.9422   13.1654 C.2         1 A02       0.2080
     16 CCK         8.9794    4.5590   14.9016 C.3         1 A02       0.1295
     17 CCL         7.7172    4.9122   15.7159 C.3         1 A02       0.1408
     18 CCM         9.4519    5.9364   14.3745 C.3         1 A02       0.1788
     19 CCN         7.2673    6.2784   15.1260 C.3         1 A02       0.2035
     20 CBZ        10.0963   10.3929    7.4449 C.2         1 A02       0.1782
     21 OAI        10.2013    9.8563    6.3492 O.2         1 A02      -0.3969
     22 CBG         8.8409   10.2235    8.1604 C.3         1 A02       0.0374
     23 CAX         8.7208    8.9093    8.9935 C.3         1 A02      -0.0360
     24 CAU         9.1976    9.0046   10.4749 C.3         1 A02      -0.0492
     25 CAW        10.7133    8.7210   10.7204 C.3         1 A02      -0.0326
     26 CBD        11.0104    7.2918   11.2459 C.3         1 A02       0.0310
     27 NBR        10.4288    7.1017   12.5397 N.am        1 A02      -0.2847
     28 NBS        11.0417   11.1952    7.9296 N.am        1 A02      -0.2656
     29 CCI        12.2748   11.6352    7.3175 C.3         1 A02       0.1308
     30 CCB        13.2647   10.5761    7.0975 C.2         1 A02       0.2016
     31 OAK        13.0615    9.7296    6.2340 O.2         1 A02      -0.3945
     32 CBJ        12.0331   12.4896    6.0255 C.3         1 A02      -0.0122
     33 CAZ        12.1320   14.0333    6.2419 C.3         1 A02      -0.0440
     34 CAS        13.5667   14.5659    6.5314 C.3         1 A02      -0.0124
     35 CAR        14.3643   14.9736    5.2655 C.3         1 A02      -0.0354
     36 NAC        15.2140   16.1459    5.5010 N.4         1 A02       0.2185
     37 CCA        14.1321    4.2071    8.9567 C.2         1 A02       0.1782
     38 OAJ        14.6276    3.4394    9.7773 O.2         1 A02      -0.3969
     39 CBH        13.8717    5.5773    9.3618 C.3         1 A02       0.0374
     40 CAY        14.9594    6.5681    8.8567 C.3         1 A02      -0.0360
     41 CAT        14.7535    8.0097    9.4030 C.3         1 A02      -0.0492
     42 CAV        15.8386    9.0197    8.9361 C.3         1 A02      -0.0326
     43 CBC        15.5349    9.7312    7.5916 C.3         1 A02       0.0310
     44 NBQ        14.4225   10.6154    7.7410 N.am        1 A02      -0.2851
     45 NBT        13.8544    3.8144    7.7163 N.am        1 A02      -0.2656
     46 CCJ        14.1456    2.5521    7.0833 C.3         1 A02       0.1310
     47 CBK        13.3182    1.3337    7.6166 C.3         1 A02      -0.0092
     48 CBB        11.7685    1.4424    7.5566 C.3         1 A02      -0.0156
     49 CBF        11.1203    2.7036    8.1986 C.3         1 A02       0.0627
     50 NBP        10.8305    3.6802    7.2364 N.pl3       1 A02      -0.2723
     51 CBX        10.1532    4.7545    7.4149 C.cat       1 A02       0.2882
     52 NAB         9.6667    5.1322    8.5357 N.pl3       1 A02      -0.2849
     53 NAE         9.9298    5.4892    6.3909 N.pl3       1 A02      -0.2849
     54 CCD        15.5922    2.3049    7.0873 C.2         1 A02       0.2039
     55 OAM        16.2852    2.6897    6.1473 O.2         1 A02      -0.3944
     56 N          16.1626    1.7198    8.1381 N.am        1 A02      -0.2637
     57 CA         17.5592    1.5111    8.4175 C.3         1 A02       0.1307
     58 CB         17.7486    0.1292    9.1277 C.3         1 A02      -0.0092
     59 CG         18.9004   -0.0531   10.1655 C.3         1 A02      -0.0156
     60 CD         20.2938   -0.4541    9.5958 C.3         1 A02       0.0627
     61 NE         21.1199    0.6549    9.3557 N.pl3       1 A02      -0.2723
     62 CZ         22.0713    0.7211    8.4969 C.cat       1 A02       0.2882
     63 NH1        22.3428   -0.1918    7.6323 N.pl3       1 A02      -0.2849
     64 NH2        22.8062    1.7689    8.4630 N.pl3       1 A02      -0.2849
     65 C          17.9662    2.6519    9.2228 C.2         1 A02       0.1992
     66 O          17.5159    2.8278   10.3435 O.2         1 A02      -0.3947
     67 NAF        18.6923    3.6357    8.7237 N.am        1 A02      -0.2990
     68 H1          6.0437    6.9745   10.1433 H           1 A02       0.0996
     69 H2          1.5750    6.2056   12.8178 H           1 A02       0.1820
     70 H3          1.6591    6.4698   11.1595 H           1 A02       0.1820
     71 H4          4.7910    5.9262   16.3477 H           1 A02       0.1349
     72 H5         10.2903    4.5077   16.3271 H           1 A02       0.2102
     73 H6          8.5870    5.7712   17.2251 H           1 A02       0.2101
     74 H7          8.6800    3.9204   14.0630 H           1 A02       0.0673
     75 H8          6.9553    4.1409   15.5720 H           1 A02       0.0678
     76 H9         10.0015    6.4600   15.1692 H           1 A02       0.0869
     77 H10         7.3250    7.0642   15.8886 H           1 A02       0.0998
     78 H11         8.0300   10.2289    7.4224 H           1 A02       0.0502
     79 H12         8.6525   11.0875    8.8043 H           1 A02       0.0502
     80 H13         9.2331    8.0889    8.4868 H           1 A02       0.0290
     81 H14         7.6590    8.6470    9.0204 H           1 A02       0.0290
     82 H15         8.6035    8.3015   11.0701 H           1 A02       0.0267
     83 H16         8.9516    9.9961   10.8678 H           1 A02       0.0267
     84 H17        11.0912    9.4357   11.4590 H           1 A02       0.0285
     85 H18        11.2744    8.8878    9.7965 H           1 A02       0.0285
     86 H19        12.0911    7.1484   11.3199 H           1 A02       0.0520
     87 H20        10.6069    6.5637   10.5362 H           1 A02       0.0520
     88 H21        10.0349    7.8858   12.9630 H           1 A02       0.1851
     89 H22        10.8609   11.5601    8.8091 H           1 A02       0.1883
     90 H23        12.6983   12.3144    8.0662 H           1 A02       0.0800
     91 H24        11.0436   12.2619    5.6247 H           1 A02       0.0312
     92 H25        12.7450   12.2136    5.2455 H           1 A02       0.0312
     93 H26        11.4787   14.3194    7.0712 H           1 A02       0.0269
     94 H27        11.7503   14.5416    5.3511 H           1 A02       0.0269
     95 H28        14.1371   13.8143    7.0785 H           1 A02       0.0317
     96 H29        13.4827   15.4417    7.1787 H           1 A02       0.0317
     97 H30        13.6745   15.2116    4.4518 H           1 A02       0.0813
     98 H31        15.0112   14.1523    4.9476 H           1 A02       0.0813
     99 H32        15.8105   16.3038    4.6834 H           1 A02       0.1994
    100 H33        15.7973   15.9908    6.3255 H           1 A02       0.1994
    101 H34        14.6271   16.9708    5.6555 H           1 A02       0.1994
    102 H35        13.8267    5.6300   10.4578 H           1 A02       0.0502
    103 H36        12.8909    5.8867    8.9755 H           1 A02       0.0502
    104 H37        14.9324    6.5879    7.7610 H           1 A02       0.0290
    105 H38        15.9521    6.2140    9.1713 H           1 A02       0.0290
    106 H39        14.7867    7.9698   10.4972 H           1 A02       0.0267
    107 H40        13.7609    8.3731    9.1121 H           1 A02       0.0267
    108 H41        16.8024    8.5052    8.8537 H           1 A02       0.0285
    109 H42        15.9489    9.7873    9.7097 H           1 A02       0.0285
    110 H43        15.3906    8.9884    6.7988 H           1 A02       0.0520
    111 H44        16.4015   10.3403    7.3145 H           1 A02       0.0520
    112 H45        14.5416   11.3389    8.3801 H           1 A02       0.1851
    113 H46        13.4437    4.4800    7.1369 H           1 A02       0.1883
    114 H47        13.8505    2.6799    6.0404 H           1 A02       0.0800
    115 H48        13.6050    1.1122    8.6486 H           1 A02       0.0313
    116 H49        13.5930    0.4564    7.0188 H           1 A02       0.0313
    117 H50        11.3991    0.5804    8.1111 H           1 A02       0.0301
    118 H51        11.4364    1.3143    6.5207 H           1 A02       0.0301
    119 H52        11.7789    3.1112    8.9749 H           1 A02       0.0689
    120 H53        10.1755    2.4038    8.6706 H           1 A02       0.0689
    121 H54        11.1352    3.5282    6.3609 H           1 A02       0.2642
    122 H55         9.1622    5.9194    8.5885 H           1 A02       0.2615
    123 H56         9.7989    4.6151    9.3044 H           1 A02       0.2615
    124 H57        10.2361    5.2206    5.5498 H           1 A02       0.2615
    125 H58         9.4324    6.2763    6.4720 H           1 A02       0.2615
    126 H59        15.5716    1.4536    8.8662 H           1 A02       0.1883
    127 H60        18.1542    1.4957    7.4949 H           1 A02       0.0800
    128 H61        17.8429   -0.6368    8.3555 H           1 A02       0.0313
    129 H62        16.8263   -0.0973    9.6639 H           1 A02       0.0313
    130 H63        18.5881   -0.8688   10.8348 H           1 A02       0.0301
    131 H64        18.9902    0.8541   10.7747 H           1 A02       0.0301
    132 H65        20.1585   -1.0608    8.6916 H           1 A02       0.0689
    133 H66        20.8066   -1.0707   10.3471 H           1 A02       0.0689
    134 H67        21.0094    1.4096    9.9042 H           1 A02       0.2642
    135 H68        23.0411   -0.0579    7.0360 H           1 A02       0.2615
    136 H69        21.8425   -0.9745    7.5944 H           1 A02       0.2615
    137 H70        22.6518    2.4686    9.0617 H           1 A02       0.2615
    138 H71        23.4974    1.8282    7.8350 H           1 A02       0.2615
    139 H72        18.8448    4.4313    9.2429 H           1 A02       0.1815
    140 H73        19.0194    3.5954    7.8177 H           1 A02       0.1815
@<TRIPOS>BOND
     1     2     1  ar
     2     6     1  ar
     3     3     2  ar
     4     4     3  ar
     5     4     5  ar
     6    10     4   1
     7     5     6  ar
     8     8     5   1
     9     6     7   1
    10     9     8   2
    11    10     9   1
    12    19    10   1
    13    15    11   2
    14    16    12   1
    15    17    13   1
    16    18    14   1
    17    14    19   1
    18    15    18   1
    19    27    15  am
    20    16    17   1
    21    18    16   1
    22    17    19   1
    23    20    21   2
    24    20    22   1
    25    28    20  am
    26    22    23   1
    27    23    24   1
    28    24    25   1
    29    25    26   1
    30    26    27   1
    31    29    28   1
    32    30    29   1
    33    29    32   1
    34    30    31   2
    35    44    30  am
    36    32    33   1
    37    33    34   1
    38    34    35   1
    39    35    36   1
    40    37    38   2
    41    39    37   1
    42    37    45  am
    43    40    39   1
    44    41    40   1
    45    42    41   1
    46    43    42   1
    47    43    44   1
    48    45    46   1
    49    46    47   1
    50    46    54   1
    51    47    48   1
    52    48    49   1
    53    49    50   1
    54    50    51  ar
    55    51    52  ar
    56    51    53  ar
    57    54    55   2
    58    54    56  am
    59    56    57   1
    60    57    58   1
    61    57    65   1
    62    58    59   1
    63    59    60   1
    64    60    61   1
    65    61    62  ar
    66    62    63  ar
    67    62    64  ar
    68    65    66   2
    69    65    67  am
    70     2    68   1
    71     7    69   1
    72     7    70   1
    73     9    71   1
    74    12    72   1
    75    13    73   1
    76    16    74   1
    77    17    75   1
    78    18    76   1
    79    19    77   1
    80    22    78   1
    81    22    79   1
    82    23    80   1
    83    23    81   1
    84    24    82   1
    85    24    83   1
    86    25    84   1
    87    25    85   1
    88    26    86   1
    89    26    87   1
    90    27    88   1
    91    28    89   1
    92    29    90   1
    93    32    91   1
    94    32    92   1
    95    33    93   1
    96    33    94   1
    97    34    95   1
    98    34    96   1
    99    35    97   1
   100    35    98   1
   101    36    99   1
   102    36   100   1
   103    36   101   1
   104    39   102   1
   105    39   103   1
   106    40   104   1
   107    40   105   1
   108    41   106   1
   109    41   107   1
   110    42   108   1
   111    42   109   1
   112    43   110   1
   113    43   111   1
   114    44   112   1
   115    45   113   1
   116    46   114   1
   117    47   115   1
   118    47   116   1
   119    48   117   1
   120    48   118   1
   121    49   119   1
   122    49   120   1
   123    50   121   1
   124    52   122   1
   125    52   123   1
   126    53   124   1
   127    53   125   1
   128    56   126   1
   129    57   127   1
   130    58   128   1
   131    58   129   1
   132    59   130   1
   133    59   131   1
   134    60   132   1
   135    60   133   1
   136    61   134   1
   137    63   135   1
   138    63   136   1
   139    64   137   1
   140    64   138   1
   141    67   139   1
   142    67   140   1
@<TRIPOS>SUBSTRUCTURE
     1  A02      2

