@<TRIPOS>MOLECULE
3ag9_ligand_062
   140   142
SMALL
GAST_HUCK
****
This file was generated by PARSER (from files_GN.cpp)

@<TRIPOS>ATOM
      1 N1         16.9763    3.9345    3.3599 N.ar        1 A02      -0.2698
      2 C2         16.6090    3.2100    4.4528 C.ar        1 A02       0.0533
      3 N3         17.4698    3.0446    5.4911 N.ar        1 A02      -0.2714
      4 C4         18.7016    3.6110    5.4422 C.ar        1 A02       0.1613
      5 C5         19.0980    4.3698    4.3457 C.ar        1 A02       0.1045
      6 C6         18.1988    4.5393    3.2795 C.ar        1 A02       0.1298
      7 N6         18.5249    5.2633    2.1972 N.pl3       1 A02      -0.3152
      8 N7         20.3486    4.8008    4.5573 N.2         1 A02      -0.2958
      9 C8         20.7187    4.3087    5.7554 C.2         1 A02       0.1123
     10 N9         19.7261    3.5753    6.3089 N.pl3       1 A02      -0.1918
     11 OAL        16.7581   -0.1288    9.3319 O.2         1 A02      -0.3941
     12 OAN        17.3389    2.9345   10.3470 O.3         1 A02      -0.3840
     13 OAO        19.9054    3.8980    9.8215 O.3         1 A02      -0.3834
     14 OBV        19.1294    1.6270    7.4922 O.3         1 A02      -0.3181
     15 CCC        17.1950    0.5284    8.3939 C.2         1 A02       0.2080
     16 CCK        17.8009    2.8667    9.0008 C.3         1 A02       0.1295
     17 CCL        19.0406    3.7267    8.6955 C.3         1 A02       0.1408
     18 CCM        18.2930    1.4501    8.6436 C.3         1 A02       0.1788
     19 CCN        19.7636    2.9165    7.5850 C.3         1 A02       0.2035
     20 CBZ        12.9836    4.4843    6.9699 C.2         1 A02       0.1782
     21 OAI        13.4450    4.2918    5.8521 O.2         1 A02      -0.3969
     22 CBG        11.9561    3.5734    7.4521 C.3         1 A02       0.0374
     23 CAX        12.5056    2.2288    8.0100 C.3         1 A02      -0.0360
     24 CAU        13.4907    1.4936    7.0561 C.3         1 A02      -0.0492
     25 CAW        14.1981    0.2671    7.6972 C.3         1 A02      -0.0326
     26 CBD        15.4182   -0.2079    6.8576 C.3         1 A02       0.0310
     27 NBR        16.6175    0.4931    7.1991 N.am        1 A02      -0.2847
     28 NBS        13.4008    5.4983    7.7176 N.am        1 A02      -0.2656
     29 CCI        14.4352    6.4551    7.3916 C.3         1 A02       0.1308
     30 CCB        13.8795    7.7395    6.9667 C.2         1 A02       0.2016
     31 OAK        12.6846    7.9838    7.1120 O.2         1 A02      -0.3945
     32 CBJ        15.4807    6.5563    8.5625 C.3         1 A02      -0.0122
     33 CAZ        15.3802    7.7569    9.5528 C.3         1 A02      -0.0440
     34 CAS        14.3947    7.5749   10.7451 C.3         1 A02      -0.0124
     35 CAR        13.7141    8.8976   11.1793 C.3         1 A02      -0.0354
     36 NAC        12.5999    9.2488   10.2816 N.4         1 A02       0.2185
     37 CCA        17.4628   14.7561    5.3330 C.2         1 A02       0.1782
     38 OAJ        16.5569   14.9856    4.5431 O.2         1 A02      -0.3969
     39 CBH        17.5997   13.4666    5.9834 C.3         1 A02       0.0374
     40 CAY        16.5956   12.3364    5.6173 C.3         1 A02      -0.0360
     41 CAT        15.2100   12.3978    6.3333 C.3         1 A02      -0.0492
     42 CAV        14.7684   11.0473    6.9633 C.3         1 A02      -0.0326
     43 CBC        14.3494    9.9472    5.9419 C.3         1 A02       0.0310
     44 NBQ        14.6899    8.6434    6.4273 N.am        1 A02      -0.2851
     45 NBT        18.3843   15.6675    5.6229 N.am        1 A02      -0.2656
     46 CCJ        18.5656   16.9933    5.0977 C.3         1 A02       0.1310
     47 CBK        17.4955   18.0228    5.6053 C.3         1 A02      -0.0092
     48 CBB        18.0698   19.4232    5.9890 C.3         1 A02      -0.0156
     49 CBF        18.8331   19.4812    7.3452 C.3         1 A02       0.0627
     50 NBP        17.9812   19.3209    8.4427 N.pl3       1 A02      -0.2723
     51 CBX        17.6025   18.2307    9.0071 C.cat       1 A02       0.2882
     52 NAB        17.9776   17.0473    8.6903 N.pl3       1 A02      -0.2849
     53 NAE        16.7494   18.3262    9.9470 N.pl3       1 A02      -0.2849
     54 CCD        18.7065   16.9755    3.6410 C.2         1 A02       0.2039
     55 OAM        17.8236   16.4489    2.9723 O.2         1 A02      -0.3944
     56 N          19.7468   17.5584    3.0495 N.am        1 A02      -0.2637
     57 CA         19.9228   17.7185    1.6306 C.3         1 A02       0.1307
     58 CB         21.4158   17.9865    1.2686 C.3         1 A02      -0.0092
     59 CG         22.4333   16.8840    1.6765 C.3         1 A02      -0.0156
     60 CD         22.2988   15.5523    0.8821 C.3         1 A02       0.0627
     61 NE         23.4482   14.7562    0.9320 N.pl3       1 A02      -0.2723
     62 CZ         24.5148   14.8816    0.2312 C.cat       1 A02       0.2882
     63 NH1        24.7018   15.7861   -0.6577 N.pl3       1 A02      -0.2849
     64 NH2        25.4585   14.0378    0.4181 N.pl3       1 A02      -0.2849
     65 C          19.0811   18.8075    1.1452 C.2         1 A02       0.1992
     66 O          18.3993   18.6732    0.1394 O.2         1 A02      -0.3947
     67 NAF        19.0027   19.9461    1.7990 N.am        1 A02      -0.2990
     68 H1         15.6850    2.7698    4.4817 H           1 A02       0.0996
     69 H2         19.3934    5.6889    2.1413 H           1 A02       0.1820
     70 H3         17.8908    5.3682    1.4721 H           1 A02       0.1820
     71 H4         21.6320    4.4860    6.1820 H           1 A02       0.1349
     72 H5         16.9127    3.8162   10.4213 H           1 A02       0.2102
     73 H6         19.6999    3.1553   10.4305 H           1 A02       0.2101
     74 H7         16.9809    3.1711    8.3385 H           1 A02       0.0673
     75 H8         18.7402    4.7229    8.3545 H           1 A02       0.0678
     76 H9         18.9186    1.0668    9.4640 H           1 A02       0.0869
     77 H10        20.8055    2.7360    7.8735 H           1 A02       0.0998
     78 H11        11.2564    3.3592    6.6369 H           1 A02       0.0502
     79 H12        11.3738    4.0543    8.2407 H           1 A02       0.0502
     80 H13        11.6552    1.5701    8.2143 H           1 A02       0.0290
     81 H14        13.0133    2.4222    8.9611 H           1 A02       0.0290
     82 H15        14.2539    2.2134    6.7445 H           1 A02       0.0267
     83 H16        12.9490    1.1576    6.1638 H           1 A02       0.0267
     84 H17        13.4782   -0.5554    7.7757 H           1 A02       0.0285
     85 H18        14.5263    0.5199    8.7122 H           1 A02       0.0285
     86 H19        15.2145   -0.0307    5.8005 H           1 A02       0.0520
     87 H20        15.5673   -1.2795    6.9839 H           1 A02       0.0520
     88 H21        17.0351    1.0108    6.4933 H           1 A02       0.1851
     89 H22        12.9392    5.6346    8.5559 H           1 A02       0.1883
     90 H23        14.9956    6.0820    6.5250 H           1 A02       0.0800
     91 H24        16.4769    6.6156    8.1085 H           1 A02       0.0312
     92 H25        15.4738    5.6240    9.1401 H           1 A02       0.0312
     93 H26        15.1234    8.6484    8.9784 H           1 A02       0.0269
     94 H27        16.3794    7.9328    9.9689 H           1 A02       0.0269
     95 H28        14.9516    7.1766   11.5976 H           1 A02       0.0317
     96 H29        13.6212    6.8618   10.5062 H           1 A02       0.0317
     97 H30        14.4377    9.7239   11.1709 H           1 A02       0.0813
     98 H31        13.3146    8.7976   12.1935 H           1 A02       0.0813
     99 H32        12.1664   10.1212   10.5809 H           1 A02       0.1994
    100 H33        11.9044    8.4987   10.2971 H           1 A02       0.1994
    101 H34        12.9477    9.3611    9.3272 H           1 A02       0.1994
    102 H35        17.5631   13.6290    7.0646 H           1 A02       0.0502
    103 H36        18.6002   13.0910    5.7452 H           1 A02       0.0502
    104 H37        17.0909   11.3943    5.8690 H           1 A02       0.0290
    105 H38        16.4435   12.3296    4.5329 H           1 A02       0.0290
    106 H39        14.4450   12.7372    5.6296 H           1 A02       0.0267
    107 H40        15.2543   13.1313    7.1395 H           1 A02       0.0267
    108 H41        13.9282   11.2365    7.6383 H           1 A02       0.0285
    109 H42        15.5987   10.6967    7.5878 H           1 A02       0.0285
    110 H43        14.8727   10.0725    4.9932 H           1 A02       0.0520
    111 H44        13.2800   10.0402    5.7260 H           1 A02       0.0520
    112 H45        15.6298    8.4036    6.3723 H           1 A02       0.1851
    113 H46        19.0461   15.3958    6.2793 H           1 A02       0.1883
    114 H47        19.5303   17.2935    5.5169 H           1 A02       0.0800
    115 H48        16.9707   17.6160    6.4725 H           1 A02       0.0313
    116 H49        16.7298   18.1679    4.8340 H           1 A02       0.0313
    117 H50        17.2416   20.1398    6.0333 H           1 A02       0.0301
    118 H51        18.7377   19.7583    5.1899 H           1 A02       0.0301
    119 H52        19.2778   20.4744    7.4361 H           1 A02       0.0689
    120 H53        19.6620   18.7698    7.3588 H           1 A02       0.0689
    121 H54        17.5948   20.0999    8.7887 H           1 A02       0.2642
    122 H55        17.6118   16.3169    9.1495 H           1 A02       0.2615
    123 H56        18.5963   16.9072    8.0038 H           1 A02       0.2615
    124 H57        16.4399   19.1690   10.2121 H           1 A02       0.2615
    125 H58        16.4205   17.5471   10.3520 H           1 A02       0.2615
    126 H59        20.4031   17.9930    3.6211 H           1 A02       0.1883
    127 H60        19.6289   16.7847    1.1369 H           1 A02       0.0800
    128 H61        21.7373   18.9213    1.7419 H           1 A02       0.0313
    129 H62        21.4952   18.1265    0.1853 H           1 A02       0.0313
    130 H63        22.3290   16.6772    2.7450 H           1 A02       0.0301
    131 H64        23.4348   17.2967    1.5226 H           1 A02       0.0301
    132 H65        22.0254   15.7477   -0.1599 H           1 A02       0.0689
    133 H66        21.4828   14.9757    1.3264 H           1 A02       0.0689
    134 H67        23.4268   14.0356    1.5289 H           1 A02       0.2642
    135 H68        25.5055   15.8120   -1.1331 H           1 A02       0.2615
    136 H69        24.0404   16.4223   -0.8298 H           1 A02       0.2615
    137 H70        25.3586   13.3598    1.0528 H           1 A02       0.2615
    138 H71        26.2460   14.0975   -0.0810 H           1 A02       0.2615
    139 H72        18.4291   20.6562    1.4704 H           1 A02       0.1815
    140 H73        19.5130   20.0661    2.6187 H           1 A02       0.1815
@<TRIPOS>BOND
     1     2     1  ar
     2     6     1  ar
     3     3     2  ar
     4     4     3  ar
     5     4     5  ar
     6    10     4   1
     7     5     6  ar
     8     8     5   1
     9     6     7   1
    10     9     8   2
    11    10     9   1
    12    19    10   1
    13    15    11   2
    14    16    12   1
    15    17    13   1
    16    18    14   1
    17    14    19   1
    18    15    18   1
    19    27    15  am
    20    16    17   1
    21    18    16   1
    22    17    19   1
    23    20    21   2
    24    20    22   1
    25    28    20  am
    26    22    23   1
    27    23    24   1
    28    24    25   1
    29    25    26   1
    30    26    27   1
    31    29    28   1
    32    30    29   1
    33    29    32   1
    34    30    31   2
    35    44    30  am
    36    32    33   1
    37    33    34   1
    38    34    35   1
    39    35    36   1
    40    37    38   2
    41    39    37   1
    42    37    45  am
    43    40    39   1
    44    41    40   1
    45    42    41   1
    46    43    42   1
    47    43    44   1
    48    45    46   1
    49    46    47   1
    50    46    54   1
    51    47    48   1
    52    48    49   1
    53    49    50   1
    54    50    51  ar
    55    51    52  ar
    56    51    53  ar
    57    54    55   2
    58    54    56  am
    59    56    57   1
    60    57    58   1
    61    57    65   1
    62    58    59   1
    63    59    60   1
    64    60    61   1
    65    61    62  ar
    66    62    63  ar
    67    62    64  ar
    68    65    66   2
    69    65    67  am
    70     2    68   1
    71     7    69   1
    72     7    70   1
    73     9    71   1
    74    12    72   1
    75    13    73   1
    76    16    74   1
    77    17    75   1
    78    18    76   1
    79    19    77   1
    80    22    78   1
    81    22    79   1
    82    23    80   1
    83    23    81   1
    84    24    82   1
    85    24    83   1
    86    25    84   1
    87    25    85   1
    88    26    86   1
    89    26    87   1
    90    27    88   1
    91    28    89   1
    92    29    90   1
    93    32    91   1
    94    32    92   1
    95    33    93   1
    96    33    94   1
    97    34    95   1
    98    34    96   1
    99    35    97   1
   100    35    98   1
   101    36    99   1
   102    36   100   1
   103    36   101   1
   104    39   102   1
   105    39   103   1
   106    40   104   1
   107    40   105   1
   108    41   106   1
   109    41   107   1
   110    42   108   1
   111    42   109   1
   112    43   110   1
   113    43   111   1
   114    44   112   1
   115    45   113   1
   116    46   114   1
   117    47   115   1
   118    47   116   1
   119    48   117   1
   120    48   118   1
   121    49   119   1
   122    49   120   1
   123    50   121   1
   124    52   122   1
   125    52   123   1
   126    53   124   1
   127    53   125   1
   128    56   126   1
   129    57   127   1
   130    58   128   1
   131    58   129   1
   132    59   130   1
   133    59   131   1
   134    60   132   1
   135    60   133   1
   136    61   134   1
   137    63   135   1
   138    63   136   1
   139    64   137   1
   140    64   138   1
   141    67   139   1
   142    67   140   1
@<TRIPOS>SUBSTRUCTURE
     1  A02      2

