@<TRIPOS>MOLECULE
3ag9_ligand_049
   140   142
SMALL
GAST_HUCK
****
This file was generated by PARSER (from files_GN.cpp)

@<TRIPOS>ATOM
      1 N1          9.5453    2.9442   15.0419 N.ar        1 A02      -0.2698
      2 C2         10.4322    2.9007   14.0037 C.ar        1 A02       0.0533
      3 N3         10.1036    3.4436   12.8023 N.ar        1 A02      -0.2714
      4 C4          8.8956    4.0389   12.6320 C.ar        1 A02       0.1613
      5 C5          7.9804    4.1049   13.6810 C.ar        1 A02       0.1045
      6 C6          8.3225    3.5323   14.9189 C.ar        1 A02       0.1298
      7 N6          7.4784    3.5435   15.9622 N.pl3       1 A02      -0.3152
      8 N7          6.8834    4.7445   13.2501 N.2         1 A02      -0.2958
      9 C8          7.1143    5.0589   11.9612 C.2         1 A02       0.1123
     10 N9          8.3300    4.6269   11.5617 N.pl3       1 A02      -0.1918
     11 OAL        12.2652    3.5418   10.7595 O.2         1 A02      -0.3941
     12 OAN         9.9700    6.0652    7.6930 O.3         1 A02      -0.3840
     13 OAO         8.9389    7.2557    9.9807 O.3         1 A02      -0.3834
     14 OBV         9.7892    3.7171    9.9092 O.3         1 A02      -0.3181
     15 CCC        12.1523    3.8979    9.5919 C.2         1 A02       0.2080
     16 CCK        10.6252    5.7594    8.9236 C.3         1 A02       0.1295
     17 CCL         9.7357    6.0806   10.1319 C.3         1 A02       0.1408
     18 CCM        10.8372    4.2262    9.0588 C.3         1 A02       0.1788
     19 CCN         8.9001    4.7925   10.2572 C.3         1 A02       0.2035
     20 CBZ        19.9309    2.9064    8.5360 C.2         1 A02       0.1782
     21 OAI        20.5437    2.6659    7.5026 O.2         1 A02      -0.3969
     22 CBG        19.2064    1.8317    9.1972 C.3         1 A02       0.0374
     23 CAX        17.7055    1.7431    8.7876 C.3         1 A02      -0.0360
     24 CAU        16.8602    2.9907    9.1669 C.3         1 A02      -0.0492
     25 CAW        15.3472    2.8504    8.8556 C.3         1 A02      -0.0326
     26 CBD        14.5907    4.1365    9.2728 C.3         1 A02       0.0310
     27 NBR        13.2254    4.1225    8.8414 N.am        1 A02      -0.2847
     28 NBS        19.9391    4.1194    9.0689 N.am        1 A02      -0.2656
     29 CCI        20.6119    5.2965    8.5762 C.3         1 A02       0.1308
     30 CCB        19.8654    5.9846    7.5088 C.2         1 A02       0.2016
     31 OAK        18.8106    5.5079    7.1048 O.2         1 A02      -0.3945
     32 CBJ        20.8421    6.2387    9.8040 C.3         1 A02      -0.0122
     33 CAZ        21.6367    5.6008   10.9874 C.3         1 A02      -0.0440
     34 CAS        21.2632    6.1449   12.4077 C.3         1 A02      -0.0124
     35 CAR        22.3484    6.9755   13.1603 C.3         1 A02      -0.0354
     36 NAC        22.7451    6.3824   14.4460 N.4         1 A02       0.2185
     37 CCA        17.4422   11.7126    3.9645 C.2         1 A02       0.1782
     38 OAJ        16.6197   10.8585    3.6502 O.2         1 A02      -0.3969
     39 CBH        18.2302   11.5169    5.1692 C.3         1 A02       0.0374
     40 CAY        19.6807   11.0260    4.8997 C.3         1 A02      -0.0360
     41 CAT        19.7918    9.6571    4.1495 C.3         1 A02      -0.0492
     42 CAV        20.4274    8.4925    4.9643 C.3         1 A02      -0.0326
     43 CBC        19.5872    8.0657    6.1927 C.3         1 A02       0.0310
     44 NBQ        20.3000    7.1560    7.0434 N.am        1 A02      -0.2851
     45 NBT        17.5546   12.8450    3.2804 N.am        1 A02      -0.2656
     46 CCJ        16.7350   13.2497    2.1659 C.3         1 A02       0.1310
     47 CBK        17.5366   14.1435    1.1591 C.3         1 A02      -0.0092
     48 CBB        18.9327   13.6206    0.6966 C.3         1 A02      -0.0156
     49 CBF        20.1362   14.1032    1.5577 C.3         1 A02       0.0627
     50 NBP        20.1536   15.5016    1.6582 N.pl3       1 A02      -0.2723
     51 CBX        20.6398   16.2141    2.6029 C.cat       1 A02       0.2882
     52 NAB        21.2268   15.7657    3.6450 N.pl3       1 A02      -0.2849
     53 NAE        20.5070   17.4857    2.5121 N.pl3       1 A02      -0.2849
     54 CCD        15.5240   13.9472    2.6130 C.2         1 A02       0.2039
     55 OAM        14.6917   14.2412    1.7646 O.2         1 A02      -0.3944
     56 N          15.3399   14.2810    3.8862 N.am        1 A02      -0.2637
     57 CA         14.2775   15.0557    4.4653 C.3         1 A02       0.1307
     58 CB         14.7994   16.3190    5.2476 C.3         1 A02      -0.0092
     59 CG         16.3402   16.5586    5.2383 C.3         1 A02      -0.0156
     60 CD         16.7741   17.8683    5.9448 C.3         1 A02       0.0627
     61 NE         16.7724   17.7393    7.3369 N.pl3       1 A02      -0.2723
     62 CZ         16.8782   18.6851    8.1929 C.cat       1 A02       0.2882
     63 NH1        16.9738   19.9248    7.8921 N.pl3       1 A02      -0.2849
     64 NH2        16.8807   18.3962    9.4374 N.pl3       1 A02      -0.2849
     65 C          13.5086   14.1495    5.3097 C.2         1 A02       0.1992
     66 O          12.4163   13.7351    4.9520 O.2         1 A02      -0.3947
     67 NAF        13.9701   13.7349    6.4731 N.am        1 A02      -0.2990
     68 H1         11.3390    2.4478   14.1298 H           1 A02       0.0996
     69 H2          6.6063    3.9594   15.8782 H           1 A02       0.1820
     70 H3          7.7310    3.1010   16.7869 H           1 A02       0.1820
     71 H4          6.4429    5.5561   11.3723 H           1 A02       0.1349
     72 H5         10.0201    7.0411    7.6075 H           1 A02       0.2102
     73 H6          8.3523    7.0848    9.2147 H           1 A02       0.2101
     74 H7         11.5539    6.3342    8.9641 H           1 A02       0.0673
     75 H8         10.3623    6.2052   11.0204 H           1 A02       0.0678
     76 H9         10.7256    3.7340    8.0851 H           1 A02       0.0869
     77 H10         8.1002    4.8035    9.5045 H           1 A02       0.0998
     78 H11        19.2842    1.9464   10.2840 H           1 A02       0.0502
     79 H12        19.6698    0.8692    8.9522 H           1 A02       0.0502
     80 H13        17.2682    0.8644    9.2815 H           1 A02       0.0290
     81 H14        17.6432    1.5801    7.7068 H           1 A02       0.0290
     82 H15        17.2307    3.8479    8.6062 H           1 A02       0.0267
     83 H16        16.9927    3.1977   10.2340 H           1 A02       0.0267
     84 H17        14.9322    1.9968    9.3967 H           1 A02       0.0285
     85 H18        15.2146    2.6761    7.7818 H           1 A02       0.0285
     86 H19        15.0506    5.0060    8.7958 H           1 A02       0.0520
     87 H20        14.6866    4.2627   10.3546 H           1 A02       0.0520
     88 H21        13.0655    4.3876    7.9172 H           1 A02       0.1851
     89 H22        19.4468    4.2363    9.8998 H           1 A02       0.1883
     90 H23        21.5907    5.0079    8.1858 H           1 A02       0.0800
     91 H24        19.8592    6.5731   10.1570 H           1 A02       0.0312
     92 H25        21.3864    7.1319    9.4898 H           1 A02       0.0312
     93 H26        22.6985    5.7349   10.7868 H           1 A02       0.0269
     94 H27        21.4694    4.5208   10.9954 H           1 A02       0.0269
     95 H28        21.0079    5.2852   13.0284 H           1 A02       0.0317
     96 H29        20.3457    6.7422   12.3526 H           1 A02       0.0317
     97 H30        21.9384    7.9610   13.3892 H           1 A02       0.0813
     98 H31        23.2448    7.1140   12.5534 H           1 A02       0.0813
     99 H32        23.3930    7.0131   14.9310 H           1 A02       0.1994
    100 H33        23.2094    5.4857   14.2920 H           1 A02       0.1994
    101 H34        21.9027    6.2374   15.0050 H           1 A02       0.1994
    102 H35        17.7438   10.7978    5.8337 H           1 A02       0.0502
    103 H36        18.2748   12.4647    5.7112 H           1 A02       0.0502
    104 H37        20.1937   10.9638    5.8641 H           1 A02       0.0290
    105 H38        20.2125   11.7936    4.3257 H           1 A02       0.0290
    106 H39        20.4056    9.8048    3.2550 H           1 A02       0.0267
    107 H40        18.8126    9.3283    3.7962 H           1 A02       0.0267
    108 H41        21.4312    8.7805    5.2844 H           1 A02       0.0285
    109 H42        20.5288    7.6214    4.3085 H           1 A02       0.0285
    110 H43        18.6394    7.6467    5.8461 H           1 A02       0.0520
    111 H44        19.3590    8.9427    6.7966 H           1 A02       0.0520
    112 H45        21.1459    7.4731    7.4002 H           1 A02       0.1851
    113 H46        18.1413   13.5200    3.6536 H           1 A02       0.1883
    114 H47        16.4272   12.3545    1.6167 H           1 A02       0.0800
    115 H48        17.6470   15.1480    1.5776 H           1 A02       0.0313
    116 H49        16.9213   14.2459    0.2591 H           1 A02       0.0313
    117 H50        19.1101   13.9636   -0.3258 H           1 A02       0.0301
    118 H51        18.9284   12.5292    0.6744 H           1 A02       0.0301
    119 H52        21.0677   13.7760    1.0949 H           1 A02       0.0689
    120 H53        20.0754   13.6441    2.5442 H           1 A02       0.0689
    121 H54        19.7363   15.9708    0.9640 H           1 A02       0.2642
    122 H55        21.5338   16.3667    4.2908 H           1 A02       0.2615
    123 H56        21.3438   14.8463    3.7698 H           1 A02       0.2615
    124 H57        20.0785   17.8618    1.7724 H           1 A02       0.2615
    125 H58        20.8321   18.0357    3.1916 H           1 A02       0.2615
    126 H59        16.0128   13.9768    4.5100 H           1 A02       0.1883
    127 H60        13.6178   15.4249    3.6702 H           1 A02       0.0800
    128 H61        14.4846   16.2842    6.2953 H           1 A02       0.0313
    129 H62        14.3233   17.2079    4.8205 H           1 A02       0.0313
    130 H63        16.6769   16.6033    4.1953 H           1 A02       0.0301
    131 H64        16.8441   15.7128    5.7177 H           1 A02       0.0301
    132 H65        16.1046   18.6721    5.6274 H           1 A02       0.0689
    133 H66        17.7873   18.1179    5.6190 H           1 A02       0.0689
    134 H67        16.6907   16.8772    7.6822 H           1 A02       0.2642
    135 H68        17.0115   20.5608    8.5749 H           1 A02       0.2615
    136 H69        16.9701   20.2021    6.9992 H           1 A02       0.2615
    137 H70        16.8093   17.5073    9.7222 H           1 A02       0.2615
    138 H71        16.9549   19.0884   10.0650 H           1 A02       0.2615
    139 H72        13.4395   13.1260    7.0111 H           1 A02       0.1815
    140 H73        14.8035   14.0915    6.8254 H           1 A02       0.1815
@<TRIPOS>BOND
     1     2     1  ar
     2     6     1  ar
     3     3     2  ar
     4     4     3  ar
     5     4     5  ar
     6    10     4   1
     7     5     6  ar
     8     8     5   1
     9     6     7   1
    10     9     8   2
    11    10     9   1
    12    19    10   1
    13    15    11   2
    14    16    12   1
    15    17    13   1
    16    18    14   1
    17    14    19   1
    18    15    18   1
    19    27    15  am
    20    16    17   1
    21    18    16   1
    22    17    19   1
    23    20    21   2
    24    20    22   1
    25    28    20  am
    26    22    23   1
    27    23    24   1
    28    24    25   1
    29    25    26   1
    30    26    27   1
    31    29    28   1
    32    30    29   1
    33    29    32   1
    34    30    31   2
    35    44    30  am
    36    32    33   1
    37    33    34   1
    38    34    35   1
    39    35    36   1
    40    37    38   2
    41    39    37   1
    42    37    45  am
    43    40    39   1
    44    41    40   1
    45    42    41   1
    46    43    42   1
    47    43    44   1
    48    45    46   1
    49    46    47   1
    50    46    54   1
    51    47    48   1
    52    48    49   1
    53    49    50   1
    54    50    51  ar
    55    51    52  ar
    56    51    53  ar
    57    54    55   2
    58    54    56  am
    59    56    57   1
    60    57    58   1
    61    57    65   1
    62    58    59   1
    63    59    60   1
    64    60    61   1
    65    61    62  ar
    66    62    63  ar
    67    62    64  ar
    68    65    66   2
    69    65    67  am
    70     2    68   1
    71     7    69   1
    72     7    70   1
    73     9    71   1
    74    12    72   1
    75    13    73   1
    76    16    74   1
    77    17    75   1
    78    18    76   1
    79    19    77   1
    80    22    78   1
    81    22    79   1
    82    23    80   1
    83    23    81   1
    84    24    82   1
    85    24    83   1
    86    25    84   1
    87    25    85   1
    88    26    86   1
    89    26    87   1
    90    27    88   1
    91    28    89   1
    92    29    90   1
    93    32    91   1
    94    32    92   1
    95    33    93   1
    96    33    94   1
    97    34    95   1
    98    34    96   1
    99    35    97   1
   100    35    98   1
   101    36    99   1
   102    36   100   1
   103    36   101   1
   104    39   102   1
   105    39   103   1
   106    40   104   1
   107    40   105   1
   108    41   106   1
   109    41   107   1
   110    42   108   1
   111    42   109   1
   112    43   110   1
   113    43   111   1
   114    44   112   1
   115    45   113   1
   116    46   114   1
   117    47   115   1
   118    47   116   1
   119    48   117   1
   120    48   118   1
   121    49   119   1
   122    49   120   1
   123    50   121   1
   124    52   122   1
   125    52   123   1
   126    53   124   1
   127    53   125   1
   128    56   126   1
   129    57   127   1
   130    58   128   1
   131    58   129   1
   132    59   130   1
   133    59   131   1
   134    60   132   1
   135    60   133   1
   136    61   134   1
   137    63   135   1
   138    63   136   1
   139    64   137   1
   140    64   138   1
   141    67   139   1
   142    67   140   1
@<TRIPOS>SUBSTRUCTURE
     1  A02      2

