@<TRIPOS>MOLECULE
3ag9_ligand_035
   140   142
SMALL
GAST_HUCK
****
This file was generated by PARSER (from files_GN.cpp)

@<TRIPOS>ATOM
      1 N1          0.5207   12.1612   15.1199 N.ar        1 A02      -0.2698
      2 C2          0.9785   11.2925   16.0650 C.ar        1 A02       0.0533
      3 N3          1.9906   10.4302   15.7722 N.ar        1 A02      -0.2714
      4 C4          2.5484   10.4400   14.5338 C.ar        1 A02       0.1613
      5 C5          2.1011   11.3211   13.5525 C.ar        1 A02       0.1045
      6 C6          1.0508   12.2016   13.8683 C.ar        1 A02       0.1298
      7 N6          0.5637   13.0692   12.9619 N.pl3       1 A02      -0.3152
      8 N7          2.8117   11.1163   12.4342 N.2         1 A02      -0.2958
      9 C8          3.6785   10.1257   12.7195 C.2         1 A02       0.1123
     10 N9          3.5273    9.6952   13.9918 N.pl3       1 A02      -0.1918
     11 OAL         8.3241    6.5917   13.9969 O.2         1 A02      -0.3941
     12 OAN         5.5877    5.3637   13.6141 O.3         1 A02      -0.3840
     13 OAO         3.4293    6.3373   14.9769 O.3         1 A02      -0.3834
     14 OBV         5.6769    8.8826   14.5071 O.3         1 A02      -0.3181
     15 CCC         7.6783    7.6336   13.9530 C.2         1 A02       0.2080
     16 CCK         5.3730    6.7754   13.5346 C.3         1 A02       0.1295
     17 CCL         3.9841    7.2358   14.0108 C.3         1 A02       0.1408
     18 CCM         6.3117    7.5960   14.4420 C.3         1 A02       0.1788
     19 CCN         4.2649    8.6370   14.6276 C.3         1 A02       0.2035
     20 CBZ        10.3220    9.3998    7.7602 C.2         1 A02       0.1782
     21 OAI        10.6395    8.6085    6.8777 O.2         1 A02      -0.3969
     22 CBG         8.9752    9.3034    8.2872 C.3         1 A02       0.0374
     23 CAX         8.7237    7.9541    9.0424 C.3         1 A02      -0.0360
     24 CAU         8.5195    8.0551   10.5799 C.3         1 A02      -0.0492
     25 CAW         9.4894    9.0219   11.3222 C.3         1 A02      -0.0326
     26 CBD         9.5080    8.8794   12.8672 C.3         1 A02       0.0310
     27 NBR         8.1924    8.7401   13.4232 N.am        1 A02      -0.2847
     28 NBS        11.1944   10.2788    8.2568 N.am        1 A02      -0.2656
     29 CCI        12.5650   10.4873    7.8669 C.3         1 A02       0.1308
     30 CCB        13.4078    9.3449    8.2413 C.2         1 A02       0.2016
     31 OAK        13.4850    8.3916    7.4743 O.2         1 A02      -0.3945
     32 CBJ        12.6869   10.8890    6.3548 C.3         1 A02      -0.0122
     33 CAZ        14.1304   11.0340    5.7825 C.3         1 A02      -0.0440
     34 CAS        14.8413   12.3896    6.0603 C.3         1 A02      -0.0124
     35 CAR        14.1423   13.6297    5.4278 C.3         1 A02      -0.0354
     36 NAC        13.6334   14.5595    6.4430 N.4         1 A02       0.2185
     37 CCA        14.4836    3.7246    8.5175 C.2         1 A02       0.1782
     38 OAJ        14.8781    2.8681    9.3023 O.2         1 A02      -0.3969
     39 CBH        13.9372    4.9733    9.0346 C.3         1 A02       0.0374
     40 CAY        14.3247    5.2570   10.5154 C.3         1 A02      -0.0360
     41 CAT        13.8092    6.6354   11.0536 C.3         1 A02      -0.0492
     42 CAV        14.8880    7.7546   11.0932 C.3         1 A02      -0.0326
     43 CBC        15.1684    8.4468    9.7334 C.3         1 A02       0.0310
     44 NBQ        14.1297    9.3659    9.3599 N.am        1 A02      -0.2851
     45 NBT        14.4631    3.5103    7.2026 N.am        1 A02      -0.2656
     46 CCJ        14.9137    2.3705    6.4483 C.3         1 A02       0.1310
     47 CBK        14.0250    1.0644    6.4756 C.3         1 A02      -0.0092
     48 CBB        12.8057    1.0393    7.4389 C.3         1 A02      -0.0156
     49 CBF        11.5783    1.8740    6.9791 C.3         1 A02       0.0627
     50 NBP        10.8947    2.4276    8.0710 N.pl3       1 A02      -0.2723
     51 CBX        10.3777    3.5919    8.1901 C.cat       1 A02       0.2882
     52 NAB        10.3748    4.4968    7.2849 N.pl3       1 A02      -0.2849
     53 NAE         9.8049    3.8685    9.2954 N.pl3       1 A02      -0.2849
     54 CCD        16.3290    2.1416    6.7322 C.2         1 A02       0.2039
     55 OAM        17.2018    2.6294    6.0182 O.2         1 A02      -0.3944
     56 N          16.6677    1.4925    7.8407 N.am        1 A02      -0.2637
     57 CA         17.9653    1.3674    8.4360 C.3         1 A02       0.1307
     58 CB         17.9908    0.0114    9.2100 C.3         1 A02      -0.0092
     59 CG         19.0847   -0.2111   10.2892 C.3         1 A02      -0.0156
     60 CD         20.4802   -0.6084    9.7433 C.3         1 A02       0.0627
     61 NE         21.2894    0.5055    9.4845 N.pl3       1 A02      -0.2723
     62 CZ         22.1413    0.6335    8.5384 C.cat       1 A02       0.2882
     63 NH1        22.3252   -0.2167    7.5997 N.pl3       1 A02      -0.2849
     64 NH2        22.8681    1.6794    8.5098 N.pl3       1 A02      -0.2849
     65 C          18.1947    2.5373    9.2703 C.2         1 A02       0.1992
     66 O          17.5596    2.7055   10.3012 O.2         1 A02      -0.3947
     67 NAF        18.9806    3.5198    8.8856 N.am        1 A02      -0.2990
     68 H1          0.5608   11.2868   16.9945 H           1 A02       0.0996
     69 H2          0.9345   13.1004   12.0642 H           1 A02       0.1820
     70 H3         -0.1683   13.6619   13.2022 H           1 A02       0.1820
     71 H4          4.3508    9.7531   12.0466 H           1 A02       0.1349
     72 H5          5.4412    5.1240   14.5535 H           1 A02       0.2102
     73 H6          4.0161    6.4003   15.7608 H           1 A02       0.2101
     74 H7          5.5087    7.0783   12.4890 H           1 A02       0.0673
     75 H8          3.2907    7.2844   13.1650 H           1 A02       0.0678
     76 H9          6.3300    7.1717   15.4535 H           1 A02       0.0869
     77 H10         4.0313    8.6138   15.6992 H           1 A02       0.0998
     78 H11         8.2781    9.3813    7.4488 H           1 A02       0.0502
     79 H12         8.7567   10.1537    8.9410 H           1 A02       0.0502
     80 H13         9.5460    7.2505    8.8689 H           1 A02       0.0290
     81 H14         7.8264    7.4836    8.6256 H           1 A02       0.0290
     82 H15         8.6300    7.0437   10.9884 H           1 A02       0.0267
     83 H16         7.4916    8.3727   10.7791 H           1 A02       0.0267
     84 H17         9.2067   10.0494   11.0748 H           1 A02       0.0285
     85 H18        10.5121    8.8658   10.9661 H           1 A02       0.0285
     86 H19         9.9585    9.7787   13.2950 H           1 A02       0.0520
     87 H20        10.1607    8.0388   13.1255 H           1 A02       0.0520
     88 H21         7.6211    9.5246   13.3762 H           1 A02       0.1851
     89 H22        10.8648   10.8478    8.9737 H           1 A02       0.1883
     90 H23        12.8916   11.3636    8.4399 H           1 A02       0.0800
     91 H24        12.1422   11.8230    6.1975 H           1 A02       0.0312
     92 H25        12.1861   10.1271    5.7511 H           1 A02       0.0312
     93 H26        14.0928   10.9019    4.6939 H           1 A02       0.0269
     94 H27        14.7659   10.2322    6.1645 H           1 A02       0.0269
     95 H28        15.8536   12.3193    5.6440 H           1 A02       0.0317
     96 H29        14.9593   12.5179    7.1400 H           1 A02       0.0317
     97 H30        13.3059   13.3324    4.7910 H           1 A02       0.0813
     98 H31        14.8544   14.1823    4.8048 H           1 A02       0.0813
     99 H32        13.1229   15.3199    5.9863 H           1 A02       0.1994
    100 H33        14.4296   14.9444    6.9604 H           1 A02       0.1994
    101 H34        13.0073   14.0670    7.0878 H           1 A02       0.1994
    102 H35        12.8430    4.9282    8.9586 H           1 A02       0.0502
    103 H36        14.2903    5.8170    8.4228 H           1 A02       0.0502
    104 H37        15.4129    5.1964   10.6278 H           1 A02       0.0290
    105 H38        13.8987    4.4659   11.1423 H           1 A02       0.0290
    106 H39        13.4556    6.4978   12.0816 H           1 A02       0.0267
    107 H40        12.9484    6.9879   10.4744 H           1 A02       0.0267
    108 H41        15.8216    7.3172   11.4582 H           1 A02       0.0285
    109 H42        14.5817    8.5107   11.8265 H           1 A02       0.0285
    110 H43        15.3586    7.6886    8.9634 H           1 A02       0.0520
    111 H44        16.0778    9.0450    9.8328 H           1 A02       0.0520
    112 H45        13.9929   10.1297    9.9504 H           1 A02       0.1851
    113 H46        14.0914    4.2295    6.6629 H           1 A02       0.1883
    114 H47        14.8685    2.7220    5.4122 H           1 A02       0.0800
    115 H48        14.6283    0.1895    6.7259 H           1 A02       0.0313
    116 H49        13.6507    0.8714    5.4629 H           1 A02       0.0313
    117 H50        13.1364    1.3544    8.4310 H           1 A02       0.0301
    118 H51        12.4934    0.0015    7.5522 H           1 A02       0.0301
    119 H52        10.8799    1.2101    6.4588 H           1 A02       0.0689
    120 H53        11.8864    2.6472    6.2661 H           1 A02       0.0689
    121 H54        10.7941    1.8574    8.8140 H           1 A02       0.2642
    122 H55         9.9658    5.3264    7.4573 H           1 A02       0.2615
    123 H56        10.7714    4.3381    6.4495 H           1 A02       0.2615
    124 H57         9.7787    3.2340    9.9845 H           1 A02       0.2615
    125 H58         9.4062    4.7022    9.4287 H           1 A02       0.2615
    126 H59        15.9447    1.1154    8.3718 H           1 A02       0.1883
    127 H60        18.7282    1.3173    7.6539 H           1 A02       0.0800
    128 H61        18.0626   -0.7956    8.4758 H           1 A02       0.0313
    129 H62        17.0311   -0.1278    9.7128 H           1 A02       0.0313
    130 H63        18.7392   -1.0318   10.9308 H           1 A02       0.0301
    131 H64        19.1640    0.6830   10.9171 H           1 A02       0.0301
    132 H65        20.3430   -1.2367    8.8583 H           1 A02       0.0689
    133 H66        20.9913   -1.2067   10.5030 H           1 A02       0.0689
    134 H67        21.2495    1.2113   10.0991 H           1 A02       0.2642
    135 H68        22.9639   -0.0438    6.9435 H           1 A02       0.2615
    136 H69        21.8122   -0.9933    7.5475 H           1 A02       0.2615
    137 H70        22.7833    2.3368    9.1734 H           1 A02       0.2615
    138 H71        23.5068    1.7863    7.8293 H           1 A02       0.2615
    139 H72        19.0368    4.3280    9.4203 H           1 A02       0.1815
    140 H73        19.4614    3.4704    8.0450 H           1 A02       0.1815
@<TRIPOS>BOND
     1     2     1  ar
     2     6     1  ar
     3     3     2  ar
     4     4     3  ar
     5     4     5  ar
     6    10     4   1
     7     5     6  ar
     8     8     5   1
     9     6     7   1
    10     9     8   2
    11    10     9   1
    12    19    10   1
    13    15    11   2
    14    16    12   1
    15    17    13   1
    16    18    14   1
    17    14    19   1
    18    15    18   1
    19    27    15  am
    20    16    17   1
    21    18    16   1
    22    17    19   1
    23    20    21   2
    24    20    22   1
    25    28    20  am
    26    22    23   1
    27    23    24   1
    28    24    25   1
    29    25    26   1
    30    26    27   1
    31    29    28   1
    32    30    29   1
    33    29    32   1
    34    30    31   2
    35    44    30  am
    36    32    33   1
    37    33    34   1
    38    34    35   1
    39    35    36   1
    40    37    38   2
    41    39    37   1
    42    37    45  am
    43    40    39   1
    44    41    40   1
    45    42    41   1
    46    43    42   1
    47    43    44   1
    48    45    46   1
    49    46    47   1
    50    46    54   1
    51    47    48   1
    52    48    49   1
    53    49    50   1
    54    50    51  ar
    55    51    52  ar
    56    51    53  ar
    57    54    55   2
    58    54    56  am
    59    56    57   1
    60    57    58   1
    61    57    65   1
    62    58    59   1
    63    59    60   1
    64    60    61   1
    65    61    62  ar
    66    62    63  ar
    67    62    64  ar
    68    65    66   2
    69    65    67  am
    70     2    68   1
    71     7    69   1
    72     7    70   1
    73     9    71   1
    74    12    72   1
    75    13    73   1
    76    16    74   1
    77    17    75   1
    78    18    76   1
    79    19    77   1
    80    22    78   1
    81    22    79   1
    82    23    80   1
    83    23    81   1
    84    24    82   1
    85    24    83   1
    86    25    84   1
    87    25    85   1
    88    26    86   1
    89    26    87   1
    90    27    88   1
    91    28    89   1
    92    29    90   1
    93    32    91   1
    94    32    92   1
    95    33    93   1
    96    33    94   1
    97    34    95   1
    98    34    96   1
    99    35    97   1
   100    35    98   1
   101    36    99   1
   102    36   100   1
   103    36   101   1
   104    39   102   1
   105    39   103   1
   106    40   104   1
   107    40   105   1
   108    41   106   1
   109    41   107   1
   110    42   108   1
   111    42   109   1
   112    43   110   1
   113    43   111   1
   114    44   112   1
   115    45   113   1
   116    46   114   1
   117    47   115   1
   118    47   116   1
   119    48   117   1
   120    48   118   1
   121    49   119   1
   122    49   120   1
   123    50   121   1
   124    52   122   1
   125    52   123   1
   126    53   124   1
   127    53   125   1
   128    56   126   1
   129    57   127   1
   130    58   128   1
   131    58   129   1
   132    59   130   1
   133    59   131   1
   134    60   132   1
   135    60   133   1
   136    61   134   1
   137    63   135   1
   138    63   136   1
   139    64   137   1
   140    64   138   1
   141    67   139   1
   142    67   140   1
@<TRIPOS>SUBSTRUCTURE
     1  A02      2

