@<TRIPOS>MOLECULE
3ag9_ligand_052
   140   142
SMALL
GAST_HUCK
****
This file was generated by PARSER (from files_GN.cpp)

@<TRIPOS>ATOM
      1 N1          7.1995    4.7555   13.5712 N.ar        1 A02      -0.2698
      2 C2          8.0950    3.8666   13.0488 C.ar        1 A02       0.0533
      3 N3          8.9991    3.2430   13.8554 N.ar        1 A02      -0.2714
      4 C4          9.0019    3.4938   15.1937 C.ar        1 A02       0.1613
      5 C5          8.0896    4.3901   15.7500 C.ar        1 A02       0.1045
      6 C6          7.1806    5.0522   14.9022 C.ar        1 A02       0.1298
      7 N6          6.3180    5.9721   15.3623 N.pl3       1 A02      -0.3152
      8 N7          8.2886    4.4318   17.0774 N.2         1 A02      -0.2958
      9 C8          9.2958    3.5782   17.3300 C.2         1 A02       0.1123
     10 N9          9.7552    3.0016   16.1947 N.pl3       1 A02      -0.1918
     11 OAL        14.8989    2.4133   13.8836 O.2         1 A02      -0.3941
     12 OAN        12.4498    0.2313   13.3686 O.3         1 A02      -0.3840
     13 OAO        10.9485   -0.3155   15.5802 O.3         1 A02      -0.3834
     14 OBV        12.0432    2.8793   15.7960 O.3         1 A02      -0.3181
     15 CCC        13.8242    2.9096   14.1950 C.2         1 A02       0.2080
     16 CCK        11.8715    1.3564   14.0277 C.3         1 A02       0.1295
     17 CCL        10.7509    0.9858   15.0180 C.3         1 A02       0.1408
     18 CCM        12.8743    2.0952   14.9328 C.3         1 A02       0.1788
     19 CCN        10.8724    2.0957   16.1015 C.3         1 A02       0.2035
     20 CBZ        14.1802    4.2433    8.0275 C.2         1 A02       0.1782
     21 OAI        13.2883    3.5785    7.5128 O.2         1 A02      -0.3969
     22 CBG        15.2838    3.5390    8.6556 C.3         1 A02       0.0374
     23 CAX        14.8542    2.6479    9.8545 C.3         1 A02      -0.0360
     24 CAU        14.1228    3.3781   11.0142 C.3         1 A02      -0.0492
     25 CAW        15.0211    4.3600   11.8184 C.3         1 A02      -0.0326
     26 CBD        14.2926    5.0255   13.0194 C.3         1 A02       0.0310
     27 NBR        13.4877    4.1325   13.8006 N.am        1 A02      -0.2847
     28 NBS        14.1884    5.5673    7.9520 N.am        1 A02      -0.2656
     29 CCI        13.2153    6.3999    7.3040 C.3         1 A02       0.1308
     30 CCB        12.9027    7.5447    8.1564 C.2         1 A02       0.2016
     31 OAK        11.7630    7.6747    8.5827 O.2         1 A02      -0.3945
     32 CBJ        13.7605    6.8733    5.9210 C.3         1 A02      -0.0122
     33 CAZ        13.7278    5.7775    4.8153 C.3         1 A02      -0.0440
     34 CAS        14.1390    6.3249    3.4204 C.3         1 A02      -0.0124
     35 CAR        13.8709    5.3318    2.2624 C.3         1 A02      -0.0354
     36 NAC        12.4357    5.1511    2.0108 N.4         1 A02       0.2185
     37 CCA        16.5566   13.4786    4.8370 C.2         1 A02       0.1782
     38 OAJ        15.8691   13.1159    3.8891 O.2         1 A02      -0.3969
     39 CBH        16.1566   13.0494    6.1654 C.3         1 A02       0.0374
     40 CAY        16.0781   11.5034    6.2772 C.3         1 A02      -0.0360
     41 CAT        15.6150   10.9737    7.6608 C.3         1 A02      -0.0492
     42 CAV        14.0710   10.8315    7.8134 C.3         1 A02      -0.0326
     43 CBC        13.6420    9.7951    8.8874 C.3         1 A02       0.0310
     44 NBQ        13.8262    8.4760    8.3591 N.am        1 A02      -0.2851
     45 NBT        17.5934   14.2919    4.6595 N.am        1 A02      -0.2656
     46 CCJ        18.0631   14.8212    3.4032 C.3         1 A02       0.1310
     47 CBK        19.6260   14.8873    3.4667 C.3         1 A02      -0.0092
     48 CBB        20.3215   15.2191    2.1069 C.3         1 A02      -0.0156
     49 CBF        21.3756   16.3626    2.1804 C.3         1 A02       0.0627
     50 NBP        20.8191   17.6427    2.3154 N.pl3       1 A02      -0.2723
     51 CBX        20.1312   18.2934    1.4502 C.cat       1 A02       0.2882
     52 NAB        19.8494   17.8773    0.2755 N.pl3       1 A02      -0.2849
     53 NAE        19.7064   19.4529    1.7767 N.pl3       1 A02      -0.2849
     54 CCD        17.3967   16.0989    3.1198 C.2         1 A02       0.2039
     55 OAM        18.0463   17.1267    2.9873 O.2         1 A02      -0.3944
     56 N          16.0728   16.1428    3.0253 N.am        1 A02      -0.2637
     57 CA         15.2457   17.2856    2.7468 C.3         1 A02       0.1307
     58 CB         15.3332   18.4574    3.7842 C.3         1 A02      -0.0092
     59 CG         15.2603   18.1345    5.3094 C.3         1 A02      -0.0156
     60 CD         16.6094   17.7221    5.9621 C.3         1 A02       0.0627
     61 NE         16.6038   17.7250    7.3602 N.pl3       1 A02      -0.2723
     62 CZ         16.7275   18.7230    8.1538 C.cat       1 A02       0.2882
     63 NH1        16.8665   19.9353    7.7812 N.pl3       1 A02      -0.2849
     64 NH2        16.7338   18.4945    9.4090 N.pl3       1 A02      -0.2849
     65 C          13.8781   16.8133    2.5552 C.2         1 A02       0.1992
     66 O          13.2740   16.2457    3.4541 O.2         1 A02      -0.3947
     67 NAF        13.2531   16.9368    1.4063 N.am        1 A02      -0.2990
     68 H1          8.0878    3.6651   12.0456 H           1 A02       0.0996
     69 H2          6.3424    6.2485   16.2947 H           1 A02       0.1820
     70 H3          5.7122    6.4135   14.7424 H           1 A02       0.1820
     71 H4          9.6680    3.4130   18.2642 H           1 A02       0.1349
     72 H5         11.6811   -0.2450   12.9868 H           1 A02       0.2102
     73 H6         10.7683   -0.9405   14.8448 H           1 A02       0.2101
     74 H7         11.4665    2.0361   13.2708 H           1 A02       0.0673
     75 H8          9.7753    0.9929   14.5239 H           1 A02       0.0678
     76 H9         13.4117    1.3617   15.5466 H           1 A02       0.0869
     77 H10        11.0434    1.6255   17.0751 H           1 A02       0.0998
     78 H11        16.0615    4.2336    8.9874 H           1 A02       0.0502
     79 H12        15.7418    2.8912    7.9024 H           1 A02       0.0502
     80 H13        15.7446    2.1523   10.2619 H           1 A02       0.0290
     81 H14        14.1941    1.8582    9.4829 H           1 A02       0.0290
     82 H15        13.7542    2.6044   11.6943 H           1 A02       0.0267
     83 H16        13.2479    3.9104   10.6360 H           1 A02       0.0267
     84 H17        15.3791    5.1517   11.1545 H           1 A02       0.0285
     85 H18        15.8975    3.8178   12.1854 H           1 A02       0.0285
     86 H19        13.6339    5.8084   12.6326 H           1 A02       0.0520
     87 H20        15.0296    5.5071   13.6684 H           1 A02       0.0520
     88 H21        12.6094    4.4543   14.0582 H           1 A02       0.1851
     89 H22        14.9621    6.0173    8.3267 H           1 A02       0.1883
     90 H23        12.2905    5.8426    7.1116 H           1 A02       0.0800
     91 H24        14.7908    7.2274    6.0279 H           1 A02       0.0312
     92 H25        13.1547    7.7149    5.5653 H           1 A02       0.0312
     93 H26        12.7129    5.3709    4.7631 H           1 A02       0.0269
     94 H27        14.4066    4.9611    5.0837 H           1 A02       0.0269
     95 H28        15.2116    6.5489    3.4422 H           1 A02       0.0317
     96 H29        13.6056    7.2603    3.2188 H           1 A02       0.0317
     97 H30        14.3228    4.3633    2.4894 H           1 A02       0.0813
     98 H31        14.3308    5.7177    1.3500 H           1 A02       0.0813
     99 H32        12.3100    4.4682    1.2579 H           1 A02       0.1994
    100 H33        12.0243    6.0462    1.7363 H           1 A02       0.1994
    101 H34        11.9769    4.8091    2.8565 H           1 A02       0.1994
    102 H35        15.1806   13.4865    6.3867 H           1 A02       0.0502
    103 H36        16.8609   13.4161    6.9177 H           1 A02       0.0502
    104 H37        17.0684   11.0898    6.0754 H           1 A02       0.0290
    105 H38        15.4024   11.1048    5.5162 H           1 A02       0.0290
    106 H39        15.9820   11.6302    8.4533 H           1 A02       0.0267
    107 H40        16.0854    9.9962    7.8018 H           1 A02       0.0267
    108 H41        13.6190   10.5410    6.8581 H           1 A02       0.0285
    109 H42        13.6539   11.8036    8.0844 H           1 A02       0.0285
    110 H43        12.6009    9.9826    9.1723 H           1 A02       0.0520
    111 H44        14.2556    9.9100    9.7834 H           1 A02       0.0520
    112 H45        14.7077    8.2833    8.0096 H           1 A02       0.1851
    113 H46        18.0648   14.5836    5.4571 H           1 A02       0.1883
    114 H47        17.8043   14.1262    2.5939 H           1 A02       0.0800
    115 H48        20.0103   13.9188    3.8075 H           1 A02       0.0313
    116 H49        19.9084   15.6169    4.2319 H           1 A02       0.0313
    117 H50        19.5811   15.4701    1.3442 H           1 A02       0.0301
    118 H51        20.8300   14.3181    1.7512 H           1 A02       0.0301
    119 H52        22.0149   16.3337    1.2926 H           1 A02       0.0689
    120 H53        22.0206   16.1842    3.0454 H           1 A02       0.0689
    121 H54        20.9793   18.0780    3.1320 H           1 A02       0.2642
    122 H55        19.3390   18.4138   -0.2994 H           1 A02       0.2615
    123 H56        20.1448   17.0355   -0.0115 H           1 A02       0.2615
    124 H57        19.8927   19.7982    2.6250 H           1 A02       0.2615
    125 H58        19.2030   19.9563    1.1713 H           1 A02       0.2615
    126 H59        15.6096   15.2958    3.1286 H           1 A02       0.1883
    127 H60        15.5989   17.6920    1.7925 H           1 A02       0.0800
    128 H61        14.5159   19.1504    3.5578 H           1 A02       0.0313
    129 H62        16.2522   19.0208    3.5996 H           1 A02       0.0313
    130 H63        14.5240   17.3481    5.4876 H           1 A02       0.0301
    131 H64        14.8991   19.0351    5.8130 H           1 A02       0.0301
    132 H65        17.4236   18.3514    5.5926 H           1 A02       0.0689
    133 H66        16.8278   16.6983    5.6654 H           1 A02       0.0689
    134 H67        16.5404   16.8876    7.7629 H           1 A02       0.2642
    135 H68        16.9469   20.6008    8.4265 H           1 A02       0.2615
    136 H69        16.8754   20.1617    6.8755 H           1 A02       0.2615
    137 H70        16.6396   17.6218    9.7371 H           1 A02       0.2615
    138 H71        16.8402   19.2132    9.9973 H           1 A02       0.2615
    139 H72        12.3526   16.5942    1.3055 H           1 A02       0.1815
    140 H73        13.6925   17.3624    0.6554 H           1 A02       0.1815
@<TRIPOS>BOND
     1     2     1  ar
     2     6     1  ar
     3     3     2  ar
     4     4     3  ar
     5     4     5  ar
     6    10     4   1
     7     5     6  ar
     8     8     5   1
     9     6     7   1
    10     9     8   2
    11    10     9   1
    12    19    10   1
    13    15    11   2
    14    16    12   1
    15    17    13   1
    16    18    14   1
    17    14    19   1
    18    15    18   1
    19    27    15  am
    20    16    17   1
    21    18    16   1
    22    17    19   1
    23    20    21   2
    24    20    22   1
    25    28    20  am
    26    22    23   1
    27    23    24   1
    28    24    25   1
    29    25    26   1
    30    26    27   1
    31    29    28   1
    32    30    29   1
    33    29    32   1
    34    30    31   2
    35    44    30  am
    36    32    33   1
    37    33    34   1
    38    34    35   1
    39    35    36   1
    40    37    38   2
    41    39    37   1
    42    37    45  am
    43    40    39   1
    44    41    40   1
    45    42    41   1
    46    43    42   1
    47    43    44   1
    48    45    46   1
    49    46    47   1
    50    46    54   1
    51    47    48   1
    52    48    49   1
    53    49    50   1
    54    50    51  ar
    55    51    52  ar
    56    51    53  ar
    57    54    55   2
    58    54    56  am
    59    56    57   1
    60    57    58   1
    61    57    65   1
    62    58    59   1
    63    59    60   1
    64    60    61   1
    65    61    62  ar
    66    62    63  ar
    67    62    64  ar
    68    65    66   2
    69    65    67  am
    70     2    68   1
    71     7    69   1
    72     7    70   1
    73     9    71   1
    74    12    72   1
    75    13    73   1
    76    16    74   1
    77    17    75   1
    78    18    76   1
    79    19    77   1
    80    22    78   1
    81    22    79   1
    82    23    80   1
    83    23    81   1
    84    24    82   1
    85    24    83   1
    86    25    84   1
    87    25    85   1
    88    26    86   1
    89    26    87   1
    90    27    88   1
    91    28    89   1
    92    29    90   1
    93    32    91   1
    94    32    92   1
    95    33    93   1
    96    33    94   1
    97    34    95   1
    98    34    96   1
    99    35    97   1
   100    35    98   1
   101    36    99   1
   102    36   100   1
   103    36   101   1
   104    39   102   1
   105    39   103   1
   106    40   104   1
   107    40   105   1
   108    41   106   1
   109    41   107   1
   110    42   108   1
   111    42   109   1
   112    43   110   1
   113    43   111   1
   114    44   112   1
   115    45   113   1
   116    46   114   1
   117    47   115   1
   118    47   116   1
   119    48   117   1
   120    48   118   1
   121    49   119   1
   122    49   120   1
   123    50   121   1
   124    52   122   1
   125    52   123   1
   126    53   124   1
   127    53   125   1
   128    56   126   1
   129    57   127   1
   130    58   128   1
   131    58   129   1
   132    59   130   1
   133    59   131   1
   134    60   132   1
   135    60   133   1
   136    61   134   1
   137    63   135   1
   138    63   136   1
   139    64   137   1
   140    64   138   1
   141    67   139   1
   142    67   140   1
@<TRIPOS>SUBSTRUCTURE
     1  A02      2

