@<TRIPOS>MOLECULE
3ag9_ligand_072
   140   142
SMALL
GAST_HUCK
****
This file was generated by PARSER (from files_GN.cpp)

@<TRIPOS>ATOM
      1 N1          5.5117    5.5745   12.5318 N.ar        1 A02      -0.2698
      2 C2          5.4121    5.2521   13.8525 C.ar        1 A02       0.0533
      3 N3          6.5307    5.1553   14.6206 N.ar        1 A02      -0.2714
      4 C4          7.7554    5.3617   14.0691 C.ar        1 A02       0.1613
      5 C5          7.8727    5.6825   12.7192 C.ar        1 A02       0.1045
      6 C6          6.7145    5.8045   11.9391 C.ar        1 A02       0.1298
      7 N6          6.7848    6.1522   10.6446 N.pl3       1 A02      -0.3152
      8 N7          9.1711    5.8358   12.4255 N.2         1 A02      -0.2958
      9 C8          9.8410    5.6155   13.5671 C.2         1 A02       0.1123
     10 N9          8.9991    5.3346   14.5891 N.pl3       1 A02      -0.1918
     11 OAL        13.0719    2.6649   16.7062 O.2         1 A02      -0.3941
     12 OAN         9.6639    4.1127   18.8435 O.3         1 A02      -0.3840
     13 OAO         7.5556    3.8575   17.1241 O.3         1 A02      -0.3834
     14 OBV        10.8101    5.1032   16.1310 O.3         1 A02      -0.3181
     15 CCC        12.0058    3.0506   16.2418 C.2         1 A02       0.2080
     16 CCK         9.9313    3.4439   17.6065 C.3         1 A02       0.1295
     17 CCL         8.8597    3.7715   16.5543 C.3         1 A02       0.1408
     18 CCM        11.2195    4.0269   16.9861 C.3         1 A02       0.1788
     19 CCN         9.3746    5.1027   15.9611 C.3         1 A02       0.2035
     20 CBZ        13.5144    6.4259   11.6887 C.2         1 A02       0.1782
     21 OAI        12.6738    6.9229   12.4257 O.2         1 A02      -0.3969
     22 CBG        14.6841    5.8084   12.2970 C.3         1 A02       0.0374
     23 CAX        14.6452    4.2605   12.4198 C.3         1 A02      -0.0360
     24 CAU        13.3231    3.6792   12.9928 C.3         1 A02      -0.0492
     25 CAW        13.4726    2.2105   13.4710 C.3         1 A02      -0.0326
     26 CBD        12.2292    1.6552   14.2167 C.3         1 A02       0.0310
     27 NBR        11.5750    2.5943   15.0743 N.am        1 A02      -0.2847
     28 NBS        13.4443    6.5744   10.3695 N.am        1 A02      -0.2656
     29 CCI        12.5200    7.3774    9.6090 C.3         1 A02       0.1308
     30 CCB        11.1994    6.7771    9.4188 C.2         1 A02       0.2016
     31 OAK        10.8811    5.7406    9.9889 O.2         1 A02      -0.3945
     32 CBJ        12.4357    8.8577   10.1199 C.3         1 A02      -0.0122
     33 CAZ        13.6463    9.7579    9.7404 C.3         1 A02      -0.0440
     34 CAS        15.0385    9.3057   10.2728 C.3         1 A02      -0.0124
     35 CAR        15.9423    8.5970    9.2271 C.3         1 A02      -0.0354
     36 NAC        17.1750    8.0910    9.8502 N.4         1 A02       0.2185
     37 CCA        13.6661    4.6401    5.6032 C.2         1 A02       0.1782
     38 OAJ        13.8844    5.1235    4.4940 O.2         1 A02      -0.3969
     39 CBH        12.4402    4.9627    6.3213 C.3         1 A02       0.0374
     40 CAY        11.5187    6.0998    5.7647 C.3         1 A02      -0.0360
     41 CAT         9.9868    5.7842    5.8536 C.3         1 A02      -0.0492
     42 CAV         9.0785    6.8588    6.5178 C.3         1 A02      -0.0326
     43 CBC         9.1252    6.8762    8.0679 C.3         1 A02       0.0310
     44 NBQ        10.3928    7.3384    8.5273 N.am        1 A02      -0.2851
     45 NBT        14.4580    3.6948    6.1026 N.am        1 A02      -0.2656
     46 CCJ        15.4804    2.9394    5.4274 C.3         1 A02       0.1310
     47 CBK        15.2104    1.3963    5.4958 C.3         1 A02      -0.0092
     48 CBB        14.7535    0.7416    6.8356 C.3         1 A02      -0.0156
     49 CBF        13.2545    0.9342    7.2236 C.3         1 A02       0.0627
     50 NBP        13.0541    1.8854    8.2352 N.pl3       1 A02      -0.2723
     51 CBX        11.9346    2.3799    8.6082 C.cat       1 A02       0.2882
     52 NAB        10.7997    2.1035    8.0869 N.pl3       1 A02      -0.2849
     53 NAE        11.9427    3.2257    9.5678 N.pl3       1 A02      -0.2849
     54 CCD        16.8100    3.3100    5.9033 C.2         1 A02       0.2039
     55 OAM        17.6803    3.5627    5.0784 O.2         1 A02      -0.3944
     56 N          17.1150    3.2884    7.1950 N.am        1 A02      -0.2637
     57 CA         18.4205    3.4929    7.7653 C.3         1 A02       0.1307
     58 CB         18.5485    2.6602    9.0763 C.3         1 A02      -0.0092
     59 CG         20.0115    2.5059    9.5981 C.3         1 A02      -0.0156
     60 CD         20.3757    1.0705   10.0717 C.3         1 A02       0.0627
     61 NE         20.9319    0.2786    9.0610 N.pl3       1 A02      -0.2723
     62 CZ         21.9871    0.5235    8.3746 C.cat       1 A02       0.2882
     63 NH1        22.7403    1.5430    8.5005 N.pl3       1 A02      -0.2849
     64 NH2        22.3244   -0.3263    7.4751 N.pl3       1 A02      -0.2849
     65 C          18.6816    4.9078    7.9760 C.2         1 A02       0.1992
     66 O          17.7664    5.6862    8.1989 O.2         1 A02      -0.3947
     67 NAF        19.9074    5.3930    7.9247 N.am        1 A02      -0.2990
     68 H1          4.4942    5.0874   14.2634 H           1 A02       0.0996
     69 H2          7.6485    6.3271   10.2378 H           1 A02       0.1820
     70 H3          5.9757    6.2411   10.1178 H           1 A02       0.1820
     71 H4         10.8582    5.6765   13.6388 H           1 A02       0.1349
     72 H5          9.2056    3.4499   19.3984 H           1 A02       0.2102
     73 H6          6.9317    3.7800   16.3740 H           1 A02       0.2101
     74 H7         10.0013    2.3672   17.7941 H           1 A02       0.0673
     75 H8          8.8475    2.9974   15.7847 H           1 A02       0.0678
     76 H9         11.8428    4.4594   17.7750 H           1 A02       0.0869
     77 H10         8.9887    5.9320   16.5629 H           1 A02       0.0998
     78 H11        14.8249    6.2374   13.2942 H           1 A02       0.0502
     79 H12        15.5859    6.0679   11.7313 H           1 A02       0.0502
     80 H13        15.4733    3.9728   13.0784 H           1 A02       0.0290
     81 H14        14.8375    3.8196   11.4385 H           1 A02       0.0290
     82 H15        12.5505    3.7300   12.2216 H           1 A02       0.0267
     83 H16        12.9988    4.2880   13.8413 H           1 A02       0.0267
     84 H17        14.3432    2.1417   14.1302 H           1 A02       0.0285
     85 H18        13.6618    1.5673   12.6091 H           1 A02       0.0285
     86 H19        12.5120    0.7677   14.7928 H           1 A02       0.0520
     87 H20        11.4967    1.3357   13.4697 H           1 A02       0.0520
     88 H21        10.7232    2.9311   14.7611 H           1 A02       0.1851
     89 H22        14.1408    6.1344    9.8532 H           1 A02       0.1883
     90 H23        12.9592    7.4142    8.6046 H           1 A02       0.0800
     91 H24        12.2993    8.8797   11.2069 H           1 A02       0.0312
     92 H25        11.5541    9.3469    9.6889 H           1 A02       0.0312
     93 H26        13.4328   10.7486   10.1536 H           1 A02       0.0269
     94 H27        13.6790    9.8757    8.6532 H           1 A02       0.0269
     95 H28        14.9063    8.6616   11.1468 H           1 A02       0.0317
     96 H29        15.5763   10.1977   10.6108 H           1 A02       0.0317
     97 H30        16.2154    9.3132    8.4523 H           1 A02       0.0813
     98 H31        15.4294    7.7661    8.7489 H           1 A02       0.0813
     99 H32        17.9253    8.0575    9.1546 H           1 A02       0.1994
    100 H33        17.0326    7.1481   10.2267 H           1 A02       0.1994
    101 H34        17.4364    8.7126   10.6150 H           1 A02       0.1994
    102 H35        12.6946    5.2154    7.3546 H           1 A02       0.0502
    103 H36        11.8657    4.0307    6.3506 H           1 A02       0.0502
    104 H37        11.7470    6.2807    4.7090 H           1 A02       0.0290
    105 H38        11.7532    7.0302    6.2950 H           1 A02       0.0290
    106 H39         9.8095    4.8389    6.3707 H           1 A02       0.0267
    107 H40         9.6163    5.6495    4.8326 H           1 A02       0.0267
    108 H41         8.0418    6.6445    6.2344 H           1 A02       0.0285
    109 H42         9.3242    7.8515    6.1240 H           1 A02       0.0285
    110 H43         8.8718    5.8880    8.4571 H           1 A02       0.0520
    111 H44         8.3741    7.5822    8.4322 H           1 A02       0.0520
    112 H45        10.7065    8.1643    8.1208 H           1 A02       0.1851
    113 H46        14.2793    3.4411    7.0192 H           1 A02       0.1883
    114 H47        15.4416    3.1900    4.3622 H           1 A02       0.0800
    115 H48        16.1252    0.8810    5.1788 H           1 A02       0.0313
    116 H49        14.4554    1.1451    4.7470 H           1 A02       0.0313
    117 H50        15.4085    1.0565    7.6469 H           1 A02       0.0301
    118 H51        14.9221   -0.3340    6.7252 H           1 A02       0.0301
    119 H52        12.8606   -0.0195    7.5873 H           1 A02       0.0689
    120 H53        12.6797    1.2110    6.3350 H           1 A02       0.0689
    121 H54        13.8136    2.1782    8.6967 H           1 A02       0.2642
    122 H55        10.0214    2.5059    8.4136 H           1 A02       0.2615
    123 H56        10.7403    1.4929    7.3811 H           1 A02       0.2615
    124 H57        12.7488    3.4650    9.9726 H           1 A02       0.2615
    125 H58        11.1416    3.6067    9.8619 H           1 A02       0.2615
    126 H59        16.3988    3.0779    7.8078 H           1 A02       0.1883
    127 H60        19.1600    3.0754    7.0729 H           1 A02       0.0800
    128 H61        18.1304    1.6701    8.8710 H           1 A02       0.0313
    129 H62        17.9276    3.1106    9.8582 H           1 A02       0.0313
    130 H63        20.1548    3.1935   10.4332 H           1 A02       0.0301
    131 H64        20.7214    2.8058    8.8257 H           1 A02       0.0301
    132 H65        19.4658    0.5774   10.4304 H           1 A02       0.0689
    133 H66        21.0721    1.1223   10.9108 H           1 A02       0.0689
    134 H67        20.4817   -0.5199    8.8668 H           1 A02       0.2642
    135 H68        23.4872    1.6458    7.9391 H           1 A02       0.2615
    136 H69        22.5566    2.1947    9.1474 H           1 A02       0.2615
    137 H70        21.8145   -1.0958    7.3322 H           1 A02       0.2615
    138 H71        23.0697   -0.1456    6.9489 H           1 A02       0.2615
    139 H72        20.0651    6.3363    8.0723 H           1 A02       0.1815
    140 H73        20.6582    4.8020    7.7610 H           1 A02       0.1815
@<TRIPOS>BOND
     1     2     1  ar
     2     6     1  ar
     3     3     2  ar
     4     4     3  ar
     5     4     5  ar
     6    10     4   1
     7     5     6  ar
     8     8     5   1
     9     6     7   1
    10     9     8   2
    11    10     9   1
    12    19    10   1
    13    15    11   2
    14    16    12   1
    15    17    13   1
    16    18    14   1
    17    14    19   1
    18    15    18   1
    19    27    15  am
    20    16    17   1
    21    18    16   1
    22    17    19   1
    23    20    21   2
    24    20    22   1
    25    28    20  am
    26    22    23   1
    27    23    24   1
    28    24    25   1
    29    25    26   1
    30    26    27   1
    31    29    28   1
    32    30    29   1
    33    29    32   1
    34    30    31   2
    35    44    30  am
    36    32    33   1
    37    33    34   1
    38    34    35   1
    39    35    36   1
    40    37    38   2
    41    39    37   1
    42    37    45  am
    43    40    39   1
    44    41    40   1
    45    42    41   1
    46    43    42   1
    47    43    44   1
    48    45    46   1
    49    46    47   1
    50    46    54   1
    51    47    48   1
    52    48    49   1
    53    49    50   1
    54    50    51  ar
    55    51    52  ar
    56    51    53  ar
    57    54    55   2
    58    54    56  am
    59    56    57   1
    60    57    58   1
    61    57    65   1
    62    58    59   1
    63    59    60   1
    64    60    61   1
    65    61    62  ar
    66    62    63  ar
    67    62    64  ar
    68    65    66   2
    69    65    67  am
    70     2    68   1
    71     7    69   1
    72     7    70   1
    73     9    71   1
    74    12    72   1
    75    13    73   1
    76    16    74   1
    77    17    75   1
    78    18    76   1
    79    19    77   1
    80    22    78   1
    81    22    79   1
    82    23    80   1
    83    23    81   1
    84    24    82   1
    85    24    83   1
    86    25    84   1
    87    25    85   1
    88    26    86   1
    89    26    87   1
    90    27    88   1
    91    28    89   1
    92    29    90   1
    93    32    91   1
    94    32    92   1
    95    33    93   1
    96    33    94   1
    97    34    95   1
    98    34    96   1
    99    35    97   1
   100    35    98   1
   101    36    99   1
   102    36   100   1
   103    36   101   1
   104    39   102   1
   105    39   103   1
   106    40   104   1
   107    40   105   1
   108    41   106   1
   109    41   107   1
   110    42   108   1
   111    42   109   1
   112    43   110   1
   113    43   111   1
   114    44   112   1
   115    45   113   1
   116    46   114   1
   117    47   115   1
   118    47   116   1
   119    48   117   1
   120    48   118   1
   121    49   119   1
   122    49   120   1
   123    50   121   1
   124    52   122   1
   125    52   123   1
   126    53   124   1
   127    53   125   1
   128    56   126   1
   129    57   127   1
   130    58   128   1
   131    58   129   1
   132    59   130   1
   133    59   131   1
   134    60   132   1
   135    60   133   1
   136    61   134   1
   137    63   135   1
   138    63   136   1
   139    64   137   1
   140    64   138   1
   141    67   139   1
   142    67   140   1
@<TRIPOS>SUBSTRUCTURE
     1  A02      2

