@<TRIPOS>MOLECULE
3ag9_ligand_030
   140   142
SMALL
GAST_HUCK
****
This file was generated by PARSER (from files_GN.cpp)

@<TRIPOS>ATOM
      1 N1         16.5869    3.6702    3.5644 N.ar        1 A02      -0.2698
      2 C2         16.7335    2.8368    4.6315 C.ar        1 A02       0.0533
      3 N3         17.9020    2.8270    5.3306 N.ar        1 A02      -0.2714
      4 C4         18.9195    3.6477    4.9720 C.ar        1 A02       0.1613
      5 C5         18.7794    4.5118    3.8844 C.ar        1 A02       0.1045
      6 C6         17.5731    4.5210    3.1720 C.ar        1 A02       0.1298
      7 N6         17.3851    5.3266    2.1115 N.pl3       1 A02      -0.3152
      8 N7         19.9316    5.1709    3.7139 N.2         1 A02      -0.2958
      9 C8         20.7663    4.7193    4.6638 C.2         1 A02       0.1123
     10 N9         20.1676    3.7974    5.4536 N.pl3       1 A02      -0.1918
     11 OAL        18.4724    1.8046   10.2435 O.2         1 A02      -0.3941
     12 OAN        21.2412    4.2257    9.9860 O.3         1 A02      -0.3840
     13 OAO        22.8014    3.3500    7.9177 O.3         1 A02      -0.3834
     14 OBV        19.8443    2.2868    7.2642 O.3         1 A02      -0.3181
     15 CCC        18.6138    2.5557    9.2862 C.2         1 A02       0.2080
     16 CCK        20.5834    4.0070    8.7384 C.3         1 A02       0.1295
     17 CCL        21.5533    3.9456    7.5540 C.3         1 A02       0.1408
     18 CCM        19.9221    2.6200    8.6561 C.3         1 A02       0.1788
     19 CCN        20.8025    3.0658    6.5208 C.3         1 A02       0.2035
     20 CBZ        15.7450    8.4945    7.3695 C.2         1 A02       0.1782
     21 OAI        16.8250    8.9443    7.7379 O.2         1 A02      -0.3969
     22 CBG        15.7474    7.3416    6.4922 C.3         1 A02       0.0374
     23 CAX        16.2533    6.0272    7.1543 C.3         1 A02      -0.0360
     24 CAU        15.4599    5.6109    8.4321 C.3         1 A02      -0.0492
     25 CAW        15.2297    4.0838    8.6130 C.3         1 A02      -0.0326
     26 CBD        16.2961    3.3191    9.4360 C.3         1 A02       0.0310
     27 NBR        17.5991    3.2918    8.8414 N.am        1 A02      -0.2847
     28 NBS        14.5998    9.0525    7.7452 N.am        1 A02      -0.2656
     29 CCI        14.4206   10.2268    8.5510 C.3         1 A02       0.1308
     30 CCB        13.2955   10.9909    8.0100 C.2         1 A02       0.2016
     31 OAK        12.1546   10.5834    8.1947 O.2         1 A02      -0.3945
     32 CBJ        14.2476    9.8840   10.0670 C.3         1 A02      -0.0122
     33 CAZ        14.0248    8.3861   10.4152 C.3         1 A02      -0.0440
     34 CAS        13.6104    8.1683   11.8984 C.3         1 A02      -0.0124
     35 CAR        13.5591    6.6771   12.3167 C.3         1 A02      -0.0354
     36 NAC        14.8983    6.1326   12.5837 N.4         1 A02       0.2185
     37 CCA        16.5807   15.4196    4.6085 C.2         1 A02       0.1782
     38 OAJ        15.9352   16.0172    3.7613 O.2         1 A02      -0.3969
     39 CBH        16.1804   14.0964    5.0675 C.3         1 A02       0.0374
     40 CAY        14.8326   13.5108    4.5451 C.3         1 A02      -0.0360
     41 CAT        13.5241   14.2904    4.8644 C.3         1 A02      -0.0492
     42 CAV        13.0455   14.3413    6.3446 C.3         1 A02      -0.0326
     43 CBC        12.4790   13.0119    6.9040 C.3         1 A02       0.0310
     44 NBQ        13.5036   12.1141    7.3388 N.am        1 A02      -0.2851
     45 NBT        17.6560   15.9786    5.1575 N.am        1 A02      -0.2656
     46 CCJ        18.2023   17.2905    4.9162 C.3         1 A02       0.1310
     47 CBK        17.2323   18.4341    5.3639 C.3         1 A02      -0.0092
     48 CBB        17.9088   19.7609    5.8154 C.3         1 A02      -0.0156
     49 CBF        18.6787   19.7256    7.1677 C.3         1 A02       0.0627
     50 NBP        17.8613   19.4806    8.2805 N.pl3       1 A02      -0.2723
     51 CBX        17.4656   18.3528    8.7484 C.cat       1 A02       0.2882
     52 NAB        17.7532   17.2054    8.2695 N.pl3       1 A02      -0.2849
     53 NAE        16.7090   18.3714    9.7788 N.pl3       1 A02      -0.2849
     54 CCD        18.6655   17.4344    3.5348 C.2         1 A02       0.2039
     55 OAM        17.8502   17.5273    2.6229 O.2         1 A02      -0.3944
     56 N          19.9648   17.4890    3.2643 N.am        1 A02      -0.2637
     57 CA         20.5955   17.5491    1.9695 C.3         1 A02       0.1307
     58 CB         22.1353   17.7603    2.1480 C.3         1 A02      -0.0092
     59 CG         23.0401   17.5030    0.9065 C.3         1 A02      -0.0156
     60 CD         22.7401   18.3429   -0.3684 C.3         1 A02       0.0627
     61 NE         21.9198   17.6875   -1.2936 N.pl3       1 A02      -0.2723
     62 CZ         22.1955   16.6262   -1.9602 C.cat       1 A02       0.2882
     63 NH1        23.2977   15.9805   -1.8765 N.pl3       1 A02      -0.2849
     64 NH2        21.3149   16.1821   -2.7718 N.pl3       1 A02      -0.2849
     65 C          19.9939   18.5890    1.1349 C.2         1 A02       0.1992
     66 O          19.6135   18.3394    0.0005 O.2         1 A02      -0.3947
     67 NAF        19.8128   19.8160    1.5755 N.am        1 A02      -0.2990
     68 H1         15.9713    2.2127    4.8976 H           1 A02       0.0996
     69 H2         18.0916    5.9265    1.8271 H           1 A02       0.1820
     70 H3         16.5446    5.3082    1.6281 H           1 A02       0.1820
     71 H4         21.7356    5.0350    4.7550 H           1 A02       0.1349
     72 H5         20.5253    4.1999   10.6532 H           1 A02       0.2102
     73 H6         22.6010    2.4130    8.1258 H           1 A02       0.2101
     74 H7         19.8570    4.8105    8.5707 H           1 A02       0.0673
     75 H8         21.7588    4.9515    7.1877 H           1 A02       0.0678
     76 H9         20.5946    1.8879    9.1212 H           1 A02       0.0869
     77 H10        21.5085    2.3720    6.0555 H           1 A02       0.0998
     78 H11        16.3778    7.5701    5.6294 H           1 A02       0.0502
     79 H12        14.7422    7.1538    6.1006 H           1 A02       0.0502
     80 H13        17.3151    6.1245    7.4016 H           1 A02       0.0290
     81 H14        16.1724    5.2407    6.3998 H           1 A02       0.0290
     82 H15        14.4689    6.0720    8.3960 H           1 A02       0.0267
     83 H16        15.9628    6.0141    9.3154 H           1 A02       0.0267
     84 H17        15.1125    3.6089    7.6363 H           1 A02       0.0285
     85 H18        14.2796    3.9574    9.1403 H           1 A02       0.0285
     86 H19        15.9434    2.2884    9.5458 H           1 A02       0.0520
     87 H20        16.3586    3.7585   10.4346 H           1 A02       0.0520
     88 H21        17.7518    3.8400    8.0550 H           1 A02       0.1851
     89 H22        13.7879    8.5980    7.4623 H           1 A02       0.1883
     90 H23        15.3160   10.8562    8.4821 H           1 A02       0.0800
     91 H24        13.4122   10.4629   10.4697 H           1 A02       0.0312
     92 H25        15.1444   10.2219   10.5966 H           1 A02       0.0312
     93 H26        14.9483    7.8446   10.2178 H           1 A02       0.0269
     94 H27        13.2486    7.9621    9.7743 H           1 A02       0.0269
     95 H28        12.6169    8.5962   12.0524 H           1 A02       0.0317
     96 H29        14.3031    8.6922   12.5646 H           1 A02       0.0317
     97 H30        13.0796    6.0807   11.5350 H           1 A02       0.0813
     98 H31        12.9643    6.5778   13.2301 H           1 A02       0.0813
     99 H32        14.8150    5.1558   12.8737 H           1 A02       0.1994
    100 H33        15.3444    6.6706   13.3287 H           1 A02       0.1994
    101 H34        15.4682    6.1843   11.7385 H           1 A02       0.1994
    102 H35        16.1625   14.1005    6.1589 H           1 A02       0.0502
    103 H36        16.9679   13.4018    4.7639 H           1 A02       0.0502
    104 H37        14.7302   12.4991    4.9440 H           1 A02       0.0290
    105 H38        14.9097   13.4146    3.4581 H           1 A02       0.0290
    106 H39        12.7219   13.8545    4.2614 H           1 A02       0.0267
    107 H40        13.6334   15.3171    4.5135 H           1 A02       0.0267
    108 H41        12.2385   15.0795    6.3918 H           1 A02       0.0285
    109 H42        13.8471   14.7102    6.9881 H           1 A02       0.0285
    110 H43        11.8569   12.5256    6.1488 H           1 A02       0.0520
    111 H44        11.8443   13.2416    7.7651 H           1 A02       0.0520
    112 H45        14.4215   12.3759    7.1701 H           1 A02       0.1851
    113 H46        18.1183   15.4467    5.8283 H           1 A02       0.1883
    114 H47        19.0770   17.3293    5.5733 H           1 A02       0.0800
    115 H48        16.6063   18.0817    6.1858 H           1 A02       0.0313
    116 H49        16.5525   18.6683    4.5379 H           1 A02       0.0313
    117 H50        17.1307   20.5264    5.8934 H           1 A02       0.0301
    118 H51        18.5968   20.0878    5.0314 H           1 A02       0.0301
    119 H52        19.1222   20.7133    7.3195 H           1 A02       0.0689
    120 H53        19.5148   19.0238    7.1191 H           1 A02       0.0689
    121 H54        17.5646   20.2351    8.7522 H           1 A02       0.2642
    122 H55        17.3803   16.4344    8.6592 H           1 A02       0.2615
    123 H56        18.3049   17.1307    7.5148 H           1 A02       0.2615
    124 H57        16.4763   19.1860   10.1702 H           1 A02       0.2615
    125 H58        16.3891   17.5618   10.1317 H           1 A02       0.2615
    126 H59        20.5619   17.4303    4.0216 H           1 A02       0.1883
    127 H60        20.4464   16.5705    1.5014 H           1 A02       0.0800
    128 H61        22.4886   17.0745    2.9259 H           1 A02       0.0313
    129 H62        22.3235   18.7708    2.5244 H           1 A02       0.0313
    130 H63        23.0103   16.4350    0.6745 H           1 A02       0.0301
    131 H64        24.0634   17.7235    1.2167 H           1 A02       0.0301
    132 H65        23.6791   18.6175   -0.8532 H           1 A02       0.0689
    133 H66        22.2571   19.2790   -0.0816 H           1 A02       0.0689
    134 H67        21.0868   18.0822   -1.4668 H           1 A02       0.2642
    135 H68        23.4350   15.2181   -2.4013 H           1 A02       0.2615
    136 H69        23.9716   16.2693   -1.2948 H           1 A02       0.2615
    137 H70        20.4958   16.6203   -2.8618 H           1 A02       0.2615
    138 H71        21.4919   15.4125   -3.2732 H           1 A02       0.2615
    139 H72        19.3984   20.4826    1.0036 H           1 A02       0.1815
    140 H73        20.0752   20.0499    2.4796 H           1 A02       0.1815
@<TRIPOS>BOND
     1     2     1  ar
     2     6     1  ar
     3     3     2  ar
     4     4     3  ar
     5     4     5  ar
     6    10     4   1
     7     5     6  ar
     8     8     5   1
     9     6     7   1
    10     9     8   2
    11    10     9   1
    12    19    10   1
    13    15    11   2
    14    16    12   1
    15    17    13   1
    16    18    14   1
    17    14    19   1
    18    15    18   1
    19    27    15  am
    20    16    17   1
    21    18    16   1
    22    17    19   1
    23    20    21   2
    24    20    22   1
    25    28    20  am
    26    22    23   1
    27    23    24   1
    28    24    25   1
    29    25    26   1
    30    26    27   1
    31    29    28   1
    32    30    29   1
    33    29    32   1
    34    30    31   2
    35    44    30  am
    36    32    33   1
    37    33    34   1
    38    34    35   1
    39    35    36   1
    40    37    38   2
    41    39    37   1
    42    37    45  am
    43    40    39   1
    44    41    40   1
    45    42    41   1
    46    43    42   1
    47    43    44   1
    48    45    46   1
    49    46    47   1
    50    46    54   1
    51    47    48   1
    52    48    49   1
    53    49    50   1
    54    50    51  ar
    55    51    52  ar
    56    51    53  ar
    57    54    55   2
    58    54    56  am
    59    56    57   1
    60    57    58   1
    61    57    65   1
    62    58    59   1
    63    59    60   1
    64    60    61   1
    65    61    62  ar
    66    62    63  ar
    67    62    64  ar
    68    65    66   2
    69    65    67  am
    70     2    68   1
    71     7    69   1
    72     7    70   1
    73     9    71   1
    74    12    72   1
    75    13    73   1
    76    16    74   1
    77    17    75   1
    78    18    76   1
    79    19    77   1
    80    22    78   1
    81    22    79   1
    82    23    80   1
    83    23    81   1
    84    24    82   1
    85    24    83   1
    86    25    84   1
    87    25    85   1
    88    26    86   1
    89    26    87   1
    90    27    88   1
    91    28    89   1
    92    29    90   1
    93    32    91   1
    94    32    92   1
    95    33    93   1
    96    33    94   1
    97    34    95   1
    98    34    96   1
    99    35    97   1
   100    35    98   1
   101    36    99   1
   102    36   100   1
   103    36   101   1
   104    39   102   1
   105    39   103   1
   106    40   104   1
   107    40   105   1
   108    41   106   1
   109    41   107   1
   110    42   108   1
   111    42   109   1
   112    43   110   1
   113    43   111   1
   114    44   112   1
   115    45   113   1
   116    46   114   1
   117    47   115   1
   118    47   116   1
   119    48   117   1
   120    48   118   1
   121    49   119   1
   122    49   120   1
   123    50   121   1
   124    52   122   1
   125    52   123   1
   126    53   124   1
   127    53   125   1
   128    56   126   1
   129    57   127   1
   130    58   128   1
   131    58   129   1
   132    59   130   1
   133    59   131   1
   134    60   132   1
   135    60   133   1
   136    61   134   1
   137    63   135   1
   138    63   136   1
   139    64   137   1
   140    64   138   1
   141    67   139   1
   142    67   140   1
@<TRIPOS>SUBSTRUCTURE
     1  A02      2

