@<TRIPOS>MOLECULE
3ag9_ligand_055
   140   142
SMALL
GAST_HUCK
****
This file was generated by PARSER (from files_GN.cpp)

@<TRIPOS>ATOM
      1 N1         14.4898    1.9622   13.6958 N.ar        1 A02      -0.2698
      2 C2         13.2457    2.2449   13.2063 C.ar        1 A02       0.0533
      3 N3         12.2265    2.5185   14.0588 N.ar        1 A02      -0.2714
      4 C4         12.4293    2.4911   15.4015 C.ar        1 A02       0.1613
      5 C5         13.6879    2.1817   15.9148 C.ar        1 A02       0.1045
      6 C6         14.7434    1.9155   15.0306 C.ar        1 A02       0.1298
      7 N6         15.9755    1.6237   15.4795 N.pl3       1 A02      -0.3152
      8 N7         13.6272    2.2089   17.2524 N.2         1 A02      -0.2958
      9 C8         12.3605    2.5321   17.5599 C.2         1 A02       0.1123
     10 N9         11.6170    2.7278   16.4532 N.pl3       1 A02      -0.1918
     11 OAL        11.0676    5.0214   13.9166 O.2         1 A02      -0.3941
     12 OAN         7.5178    4.4933   16.8468 O.3         1 A02      -0.3840
     13 OAO         9.7111    4.3799   18.5499 O.3         1 A02      -0.3834
     14 OBV         9.6477    3.1787   15.1399 O.3         1 A02      -0.3181
     15 CCC         9.9140    5.3598   14.1660 C.2         1 A02       0.2080
     16 CCK         8.7530    5.0161   16.3530 C.3         1 A02       0.1295
     17 CCL         9.9496    4.4664   17.1436 C.3         1 A02       0.1408
     18 CCM         9.0537    4.4756   14.9364 C.3         1 A02       0.1788
     19 CCN        10.2240    3.1012   16.4598 C.3         1 A02       0.2035
     20 CBZ         9.9003    4.2525    8.5244 C.2         1 A02       0.1782
     21 OAI         9.7269    5.1900    7.7531 O.2         1 A02      -0.3969
     22 CBG         9.2435    4.2766    9.8187 C.3         1 A02       0.0374
     23 CAX        10.2270    4.5598   10.9918 C.3         1 A02      -0.0360
     24 CAU        10.9472    5.9433   10.9457 C.3         1 A02      -0.0492
     25 CAW        10.0936    7.1652   11.4049 C.3         1 A02      -0.0326
     26 CBD        10.1427    7.4747   12.9259 C.3         1 A02       0.0310
     27 NBR         9.4376    6.5233   13.7239 N.am        1 A02      -0.2847
     28 NBS        10.7206    3.2525    8.2193 N.am        1 A02      -0.2656
     29 CCI        11.5387    3.1836    7.0391 C.3         1 A02       0.1308
     30 CCB        12.6103    4.1638    7.0396 C.2         1 A02       0.2016
     31 OAK        13.2379    4.3789    8.0790 O.2         1 A02      -0.3945
     32 CBJ        12.0988    1.7440    6.8121 C.3         1 A02      -0.0122
     33 CAZ        12.7642    1.0810    8.0592 C.3         1 A02      -0.0440
     34 CAS        13.9347    0.1109    7.7410 C.3         1 A02      -0.0124
     35 CAR        14.8506    0.5766    6.5753 C.3         1 A02      -0.0354
     36 NAC        16.1321   -0.1363    6.5616 N.4         1 A02       0.2185
     37 CCA        16.8462    8.4658    3.7543 C.2         1 A02       0.1782
     38 OAJ        17.9919    8.1580    4.0660 O.2         1 A02      -0.3969
     39 CBH        16.2642    7.8460    2.5764 C.3         1 A02       0.0374
     40 CAY        14.7113    7.7034    2.4867 C.3         1 A02      -0.0360
     41 CAT        13.9590    7.0722    3.6932 C.3         1 A02      -0.0492
     42 CAV        14.6221    5.8063    4.3059 C.3         1 A02      -0.0326
     43 CBC        14.1759    5.5307    5.7712 C.3         1 A02       0.0310
     44 NBQ        12.9890    4.7546    5.9002 N.am        1 A02      -0.2851
     45 NBT        16.1839    9.3822    4.4628 N.am        1 A02      -0.2656
     46 CCJ        16.6191   10.0766    5.6494 C.3         1 A02       0.1310
     47 CBK        15.8371    9.4698    6.8715 C.3         1 A02      -0.0092
     48 CBB        16.1759    7.9870    7.1962 C.3         1 A02      -0.0156
     49 CBF        17.5905    7.7700    7.8061 C.3         1 A02       0.0627
     50 NBP        17.8112    6.4455    8.1908 N.pl3       1 A02      -0.2723
     51 CBX        18.0454    5.4297    7.4456 C.cat       1 A02       0.2882
     52 NAB        18.1315    5.4554    6.1699 N.pl3       1 A02      -0.2849
     53 NAE        18.2065    4.3084    8.0349 N.pl3       1 A02      -0.2849
     54 CCD        16.4420   11.5179    5.5221 C.2         1 A02       0.2039
     55 OAM        16.8487   12.2375    6.4362 O.2         1 A02      -0.3944
     56 N          15.8431   12.0890    4.4641 N.am        1 A02      -0.2637
     57 CA         15.4694   13.4552    4.2863 C.3         1 A02       0.1307
     58 CB         16.6077   14.5029    4.5335 C.3         1 A02      -0.0092
     59 CG         17.7446   14.5524    3.4766 C.3         1 A02      -0.0156
     60 CD         19.0169   13.7390    3.8361 C.3         1 A02       0.0627
     61 NE         20.1239   14.0843    3.0487 N.pl3       1 A02      -0.2723
     62 CZ         20.8534   15.1374    3.1281 C.cat       1 A02       0.2882
     63 NH1        20.6891   16.0769    3.9802 N.pl3       1 A02      -0.2849
     64 NH2        21.8149   15.2669    2.2982 N.pl3       1 A02      -0.2849
     65 C          14.2211   13.7121    5.0155 C.2         1 A02       0.1992
     66 O          13.1510   13.4338    4.4926 O.2         1 A02      -0.3947
     67 NAF        14.1798   14.2242    6.2209 N.am        1 A02      -0.2990
     68 H1         13.0936    2.2569   12.1997 H           1 A02       0.0996
     69 H2         16.1482    1.5957   16.4363 H           1 A02       0.1820
     70 H3         16.6968    1.4387   14.8548 H           1 A02       0.1820
     71 H4         12.0196    2.6226   18.5198 H           1 A02       0.1349
     72 H5          6.8564    4.6940   16.1489 H           1 A02       0.2102
     73 H6          9.5622    3.4320   18.7518 H           1 A02       0.2101
     74 H7          8.7101    6.1100   16.3929 H           1 A02       0.0673
     75 H8         10.8065    5.1313   16.9953 H           1 A02       0.0678
     76 H9          8.1227    4.3138   14.3815 H           1 A02       0.0869
     77 H10         9.6717    2.3252   17.0002 H           1 A02       0.0998
     78 H11         8.7669    3.3047    9.9830 H           1 A02       0.0502
     79 H12         8.4468    5.0282    9.8288 H           1 A02       0.0502
     80 H13        10.9904    3.7750   10.9993 H           1 A02       0.0290
     81 H14         9.6675    4.4690   11.9235 H           1 A02       0.0290
     82 H15        11.2919    6.1225    9.9218 H           1 A02       0.0267
     83 H16        11.8517    5.8875   11.5580 H           1 A02       0.0267
     84 H17         9.0537    7.0382   11.0959 H           1 A02       0.0285
     85 H18        10.4744    8.0488   10.8859 H           1 A02       0.0285
     86 H19         9.6698    8.4458   13.0917 H           1 A02       0.0520
     87 H20        11.1836    7.5751   13.2445 H           1 A02       0.0520
     88 H21         8.5120    6.7325   13.9417 H           1 A02       0.1851
     89 H22        10.7855    2.5187    8.8491 H           1 A02       0.1883
     90 H23        10.8855    3.4000    6.1877 H           1 A02       0.0800
     91 H24        12.8211    1.7867    5.9923 H           1 A02       0.0312
     92 H25        11.2758    1.1054    6.4779 H           1 A02       0.0312
     93 H26        11.9976    0.5241    8.6062 H           1 A02       0.0269
     94 H27        13.1506    1.8390    8.7437 H           1 A02       0.0269
     95 H28        13.5360   -0.8785    7.5159 H           1 A02       0.0317
     96 H29        14.5425    0.0159    8.6438 H           1 A02       0.0317
     97 H30        15.0710    1.6423    6.6668 H           1 A02       0.0813
     98 H31        14.3628    0.4037    5.6130 H           1 A02       0.0813
     99 H32        16.6915    0.1934    5.7693 H           1 A02       0.1994
    100 H33        15.9684   -1.1417    6.4663 H           1 A02       0.1994
    101 H34        16.6414    0.0462    7.4300 H           1 A02       0.1994
    102 H35        16.6965    6.8470    2.4522 H           1 A02       0.0502
    103 H36        16.5904    8.4278    1.7083 H           1 A02       0.0502
    104 H37        14.4757    7.1113    1.5974 H           1 A02       0.0290
    105 H38        14.2915    8.6982    2.3232 H           1 A02       0.0290
    106 H39        12.9462    6.8086    3.3697 H           1 A02       0.0267
    107 H40        13.8549    7.8367    4.4677 H           1 A02       0.0267
    108 H41        15.7064    5.9543    4.3294 H           1 A02       0.0285
    109 H42        14.4099    4.9298    3.6821 H           1 A02       0.0285
    110 H43        14.0352    6.4870    6.2852 H           1 A02       0.0520
    111 H44        14.9836    4.9947    6.2801 H           1 A02       0.0520
    112 H45        12.4513    4.5952    5.1076 H           1 A02       0.1851
    113 H46        15.2785    9.5791    4.1676 H           1 A02       0.1883
    114 H47        17.6869    9.9228    5.8287 H           1 A02       0.0800
    115 H48        14.7619    9.5388    6.6646 H           1 A02       0.0313
    116 H49        16.0267   10.0580    7.7775 H           1 A02       0.0313
    117 H50        16.0775    7.3780    6.2918 H           1 A02       0.0301
    118 H51        15.4417    7.6284    7.9279 H           1 A02       0.0301
    119 H52        17.6750    8.3723    8.7158 H           1 A02       0.0689
    120 H53        18.3778    8.0916    7.1156 H           1 A02       0.0689
    121 H54        17.7894    6.2755    9.1110 H           1 A02       0.2642
    122 H55        18.3175    4.6684    5.6958 H           1 A02       0.2615
    123 H56        18.0250    6.2605    5.7058 H           1 A02       0.2615
    124 H57        18.1482    4.2660    8.9681 H           1 A02       0.2615
    125 H58        18.3898    3.5327    7.5445 H           1 A02       0.2615
    126 H59        15.5618   11.4716    3.7698 H           1 A02       0.1883
    127 H60        15.2104   13.5494    3.2299 H           1 A02       0.0800
    128 H61        17.0433   14.3603    5.5245 H           1 A02       0.0313
    129 H62        16.1404   15.4914    4.5382 H           1 A02       0.0313
    130 H63        18.0270   15.5992    3.3663 H           1 A02       0.0301
    131 H64        17.3648   14.2191    2.5089 H           1 A02       0.0301
    132 H65        18.8158   12.6802    3.6703 H           1 A02       0.0689
    133 H66        19.2663   13.8639    4.8933 H           1 A02       0.0689
    134 H67        20.3649   13.4728    2.3833 H           1 A02       0.2642
    135 H68        21.2623   16.8175    3.9865 H           1 A02       0.2615
    136 H69        20.0012   16.0268    4.6102 H           1 A02       0.2615
    137 H70        21.9728   14.6079    1.6526 H           1 A02       0.2615
    138 H71        22.3680   16.0240    2.3304 H           1 A02       0.2615
    139 H72        13.3247   14.3859    6.6510 H           1 A02       0.1815
    140 H73        14.9978   14.4455    6.6917 H           1 A02       0.1815
@<TRIPOS>BOND
     1     2     1  ar
     2     6     1  ar
     3     3     2  ar
     4     4     3  ar
     5     4     5  ar
     6    10     4   1
     7     5     6  ar
     8     8     5   1
     9     6     7   1
    10     9     8   2
    11    10     9   1
    12    19    10   1
    13    15    11   2
    14    16    12   1
    15    17    13   1
    16    18    14   1
    17    14    19   1
    18    15    18   1
    19    27    15  am
    20    16    17   1
    21    18    16   1
    22    17    19   1
    23    20    21   2
    24    20    22   1
    25    28    20  am
    26    22    23   1
    27    23    24   1
    28    24    25   1
    29    25    26   1
    30    26    27   1
    31    29    28   1
    32    30    29   1
    33    29    32   1
    34    30    31   2
    35    44    30  am
    36    32    33   1
    37    33    34   1
    38    34    35   1
    39    35    36   1
    40    37    38   2
    41    39    37   1
    42    37    45  am
    43    40    39   1
    44    41    40   1
    45    42    41   1
    46    43    42   1
    47    43    44   1
    48    45    46   1
    49    46    47   1
    50    46    54   1
    51    47    48   1
    52    48    49   1
    53    49    50   1
    54    50    51  ar
    55    51    52  ar
    56    51    53  ar
    57    54    55   2
    58    54    56  am
    59    56    57   1
    60    57    58   1
    61    57    65   1
    62    58    59   1
    63    59    60   1
    64    60    61   1
    65    61    62  ar
    66    62    63  ar
    67    62    64  ar
    68    65    66   2
    69    65    67  am
    70     2    68   1
    71     7    69   1
    72     7    70   1
    73     9    71   1
    74    12    72   1
    75    13    73   1
    76    16    74   1
    77    17    75   1
    78    18    76   1
    79    19    77   1
    80    22    78   1
    81    22    79   1
    82    23    80   1
    83    23    81   1
    84    24    82   1
    85    24    83   1
    86    25    84   1
    87    25    85   1
    88    26    86   1
    89    26    87   1
    90    27    88   1
    91    28    89   1
    92    29    90   1
    93    32    91   1
    94    32    92   1
    95    33    93   1
    96    33    94   1
    97    34    95   1
    98    34    96   1
    99    35    97   1
   100    35    98   1
   101    36    99   1
   102    36   100   1
   103    36   101   1
   104    39   102   1
   105    39   103   1
   106    40   104   1
   107    40   105   1
   108    41   106   1
   109    41   107   1
   110    42   108   1
   111    42   109   1
   112    43   110   1
   113    43   111   1
   114    44   112   1
   115    45   113   1
   116    46   114   1
   117    47   115   1
   118    47   116   1
   119    48   117   1
   120    48   118   1
   121    49   119   1
   122    49   120   1
   123    50   121   1
   124    52   122   1
   125    52   123   1
   126    53   124   1
   127    53   125   1
   128    56   126   1
   129    57   127   1
   130    58   128   1
   131    58   129   1
   132    59   130   1
   133    59   131   1
   134    60   132   1
   135    60   133   1
   136    61   134   1
   137    63   135   1
   138    63   136   1
   139    64   137   1
   140    64   138   1
   141    67   139   1
   142    67   140   1
@<TRIPOS>SUBSTRUCTURE
     1  A02      2

