@<TRIPOS>MOLECULE
3ag9_ligand_029
   140   142
SMALL
GAST_HUCK
****
This file was generated by PARSER (from files_GN.cpp)

@<TRIPOS>ATOM
      1 N1          6.9329    9.9764    9.2911 N.ar        1 A02      -0.2698
      2 C2          6.5635    8.8375    9.9399 C.ar        1 A02       0.0533
      3 N3          5.8306    8.9085   11.0851 N.ar        1 A02      -0.2714
      4 C4          5.4646   10.1206   11.5795 C.ar        1 A02       0.1613
      5 C5          5.8336   11.2974   10.9304 C.ar        1 A02       0.1045
      6 C6          6.5925   11.2129    9.7505 C.ar        1 A02       0.1298
      7 N6          6.9949   12.3079    9.0831 N.pl3       1 A02      -0.3152
      8 N7          5.3498   12.3380   11.6233 N.2         1 A02      -0.2958
      9 C8          4.6978   11.8140   12.6791 C.2         1 A02       0.1123
     10 N9          4.7575   10.4628   12.6721 N.pl3       1 A02      -0.1918
     11 OAL         5.3477    5.3427   14.8273 O.2         1 A02      -0.3941
     12 OAN         2.5441    6.3974   14.1268 O.3         1 A02      -0.3840
     13 OAO         1.8290    8.9479   13.6275 O.3         1 A02      -0.3834
     14 OBV         5.2572    8.7559   14.2009 O.3         1 A02      -0.3181
     15 CCC         5.6483    6.5288   14.9437 C.2         1 A02       0.2080
     16 CCK         3.5903    7.2236   13.6107 C.3         1 A02       0.1295
     17 CCL         3.1217    8.6092   13.1235 C.3         1 A02       0.1408
     18 CCM         4.6476    7.5525   14.6892 C.3         1 A02       0.1788
     19 CCN         4.2108    9.5767   13.6626 C.3         1 A02       0.2035
     20 CBZ        11.6543    8.0119   11.9809 C.2         1 A02       0.1782
     21 OAI        12.1550    6.8935   12.0156 O.2         1 A02      -0.3969
     22 CBG        10.7252    8.4083   13.0292 C.3         1 A02       0.0374
     23 CAX         9.5432    7.4233   13.2793 C.3         1 A02      -0.0360
     24 CAU         9.9010    6.2170   14.1944 C.3         1 A02      -0.0492
     25 CAW         8.6985    5.3713   14.6959 C.3         1 A02      -0.0326
     26 CBD         7.8683    5.9941   15.8536 C.3         1 A02       0.0310
     27 NBR         6.8266    6.8810   15.4351 N.am        1 A02      -0.2847
     28 NBS        12.0214    8.8974   11.0612 N.am        1 A02      -0.2656
     29 CCI        12.9209    8.7151    9.9560 C.3         1 A02       0.1308
     30 CCB        12.1323    8.7970    8.7266 C.2         1 A02       0.2016
     31 OAK        12.1329    7.8448    7.9593 O.2         1 A02      -0.3945
     32 CBJ        14.0571    9.7894   10.0421 C.3         1 A02      -0.0122
     33 CAZ        15.2822    9.6097    9.0932 C.3         1 A02      -0.0440
     34 CAS        14.9386    9.2835    7.6123 C.3         1 A02      -0.0124
     35 CAR        16.0992    9.4978    6.6059 C.3         1 A02      -0.0354
     36 NAC        17.0482    8.3803    6.5735 N.4         1 A02       0.2185
     37 CCA        13.4690   14.5273    5.1671 C.2         1 A02       0.1782
     38 OAJ        13.2553   14.5428    3.9598 O.2         1 A02      -0.3969
     39 CBH        12.3293   14.4060    6.0603 C.3         1 A02       0.0374
     40 CAY        11.5049   13.0982    5.8695 C.3         1 A02      -0.0360
     41 CAT        12.2909   11.8037    6.2091 C.3         1 A02      -0.0492
     42 CAV        11.4660   10.4889    6.0651 C.3         1 A02      -0.0326
     43 CBC        10.6044   10.1246    7.3052 C.3         1 A02       0.0310
     44 NBQ        11.3903    9.8730    8.4711 N.am        1 A02      -0.2851
     45 NBT        14.6956   14.6634    5.6570 N.am        1 A02      -0.2656
     46 CCJ        15.9232   14.8313    4.9161 C.3         1 A02       0.1310
     47 CBK        16.9451   13.7139    5.3477 C.3         1 A02      -0.0092
     48 CBB        17.6803   13.0146    4.1664 C.3         1 A02      -0.0156
     49 CBF        18.9108   12.1500    4.5885 C.3         1 A02       0.0627
     50 NBP        20.1299   12.7433    4.2360 N.pl3       1 A02      -0.2723
     51 CBX        21.3054   12.3630    4.5730 C.cat       1 A02       0.2882
     52 NAB        21.5543   11.3967    5.3874 N.pl3       1 A02      -0.2849
     53 NAE        22.3043   12.9946    4.0894 N.pl3       1 A02      -0.2849
     54 CCD        16.4416   16.1911    5.0793 C.2         1 A02       0.2039
     55 OAM        15.7484   17.0592    5.6014 O.2         1 A02      -0.3944
     56 N          17.6335   16.5033    4.5752 N.am        1 A02      -0.2637
     57 CA         18.2626   17.8017    4.4972 C.3         1 A02       0.1307
     58 CB         18.6199   18.4015    5.8977 C.3         1 A02      -0.0092
     59 CG         19.6901   17.6072    6.7092 C.3         1 A02      -0.0156
     60 CD         19.1968   16.6184    7.8027 C.3         1 A02       0.0627
     61 NE         18.1855   17.0218    8.6756 N.pl3       1 A02      -0.2723
     62 CZ         18.0741   18.1307    9.3106 C.cat       1 A02       0.2882
     63 NH1        18.8684   19.1346    9.2400 N.pl3       1 A02      -0.2849
     64 NH2        17.0683   18.2495   10.0823 N.pl3       1 A02      -0.2849
     65 C          17.5461   18.7575    3.6537 C.2         1 A02       0.1992
     66 O          16.3835   18.5905    3.3156 O.2         1 A02      -0.3947
     67 NAF        18.1593   19.8213    3.1849 N.am        1 A02      -0.2990
     68 H1          6.8389    7.9290    9.5647 H           1 A02       0.0996
     69 H2          6.8122   13.1955    9.4347 H           1 A02       0.1820
     70 H3          7.5163   12.2115    8.2705 H           1 A02       0.1820
     71 H4          4.2283   12.3778   13.3903 H           1 A02       0.1349
     72 H5          1.9249    6.2668   13.3780 H           1 A02       0.2102
     73 H6          1.6057    9.8085   13.2123 H           1 A02       0.2101
     74 H7          4.0618    6.6973   12.7743 H           1 A02       0.0673
     75 H8          3.0693    8.6225   12.0311 H           1 A02       0.0678
     76 H9          4.1529    7.7708   15.6444 H           1 A02       0.0869
     77 H10         3.7950   10.1584   14.4940 H           1 A02       0.0998
     78 H11        10.2890    9.3835   12.7874 H           1 A02       0.0502
     79 H12        11.2825    8.5477   13.9599 H           1 A02       0.0502
     80 H13         9.1634    7.0612   12.3185 H           1 A02       0.0290
     81 H14         8.7434    7.9942   13.7533 H           1 A02       0.0290
     82 H15        10.4622    6.5709   15.0633 H           1 A02       0.0267
     83 H16        10.5546    5.5438   13.6371 H           1 A02       0.0267
     84 H17         9.1142    4.4298   15.0698 H           1 A02       0.0285
     85 H18         8.0502    5.1286   13.8497 H           1 A02       0.0285
     86 H19         8.5337    6.5481   16.5151 H           1 A02       0.0520
     87 H20         7.4336    5.1913   16.4578 H           1 A02       0.0520
     88 H21         6.9806    7.8293   15.5755 H           1 A02       0.1851
     89 H22        11.6502    9.7871   11.1577 H           1 A02       0.1883
     90 H23        13.4047    7.7346   10.0170 H           1 A02       0.0800
     91 H24        14.4564    9.7729   11.0613 H           1 A02       0.0312
     92 H25        13.6380   10.7891    9.8905 H           1 A02       0.0312
     93 H26        15.9302    8.8231    9.4865 H           1 A02       0.0269
     94 H27        15.8501   10.5476    9.1214 H           1 A02       0.0269
     95 H28        14.1173    9.9248    7.2927 H           1 A02       0.0317
     96 H29        14.6021    8.2434    7.5359 H           1 A02       0.0317
     97 H30        16.6325   10.4137    6.8602 H           1 A02       0.0813
     98 H31        15.6870    9.6164    5.6015 H           1 A02       0.0813
     99 H32        17.8087    8.6047    5.9264 H           1 A02       0.1994
    100 H33        16.5728    7.5350    6.2484 H           1 A02       0.1994
    101 H34        17.4342    8.2127    7.5061 H           1 A02       0.1994
    102 H35        11.6714   15.2556    5.8677 H           1 A02       0.0502
    103 H36        12.6417   14.4734    7.1073 H           1 A02       0.0502
    104 H37        11.1554   13.0378    4.8337 H           1 A02       0.0290
    105 H38        10.6193   13.1543    6.5083 H           1 A02       0.0290
    106 H39        12.6780   11.8890    7.2265 H           1 A02       0.0267
    107 H40        13.1497   11.7413    5.5329 H           1 A02       0.0267
    108 H41        12.1556    9.6634    5.8714 H           1 A02       0.0285
    109 H42        10.8118   10.5659    5.1912 H           1 A02       0.0285
    110 H43         9.9836    9.2533    7.0789 H           1 A02       0.0520
    111 H44         9.9297   10.9515    7.5244 H           1 A02       0.0520
    112 H45        11.3686   10.5598    9.1526 H           1 A02       0.1851
    113 H46        14.7834   14.7004    6.6226 H           1 A02       0.1883
    114 H47        15.7180   14.7181    3.8481 H           1 A02       0.0800
    115 H48        16.4278   12.9281    5.9083 H           1 A02       0.0313
    116 H49        17.6894   14.1288    6.0320 H           1 A02       0.0313
    117 H50        17.9939   13.7622    3.4365 H           1 A02       0.0301
    118 H51        16.9551   12.3692    3.6627 H           1 A02       0.0301
    119 H52        18.8451   11.1823    4.0828 H           1 A02       0.0689
    120 H53        18.8885   11.9657    5.6653 H           1 A02       0.0689
    121 H54        20.0910   13.4802    3.6627 H           1 A02       0.2642
    122 H55        22.4383   11.1797    5.5873 H           1 A02       0.2615
    123 H56        20.8548   10.9086    5.7600 H           1 A02       0.2615
    124 H57        22.1586   13.7042    3.5009 H           1 A02       0.2615
    125 H58        23.1761   12.7438    4.3135 H           1 A02       0.2615
    126 H59        18.1316   15.7748    4.1697 H           1 A02       0.1883
    127 H60        19.2109   17.6174    3.9800 H           1 A02       0.0800
    128 H61        17.7192   18.5380    6.4983 H           1 A02       0.0313
    129 H62        19.0274   19.4057    5.7464 H           1 A02       0.0313
    130 H63        20.3540   18.3248    7.1952 H           1 A02       0.0301
    131 H64        20.3236   17.0516    6.0129 H           1 A02       0.0301
    132 H65        20.0568   16.3181    8.4059 H           1 A02       0.0689
    133 H66        18.8342   15.7195    7.3095 H           1 A02       0.0689
    134 H67        17.5077   16.3924    8.8384 H           1 A02       0.2642
    135 H68        18.7025   19.8965    9.7648 H           1 A02       0.2615
    136 H69        19.6285   19.0982    8.7016 H           1 A02       0.2615
    137 H70        16.4847   17.5269   10.2003 H           1 A02       0.2615
    138 H71        16.9396   19.0479   10.5545 H           1 A02       0.2615
    139 H72        17.6841   20.4440    2.6182 H           1 A02       0.1815
    140 H73        19.0928   19.9716    3.4013 H           1 A02       0.1815
@<TRIPOS>BOND
     1     2     1  ar
     2     6     1  ar
     3     3     2  ar
     4     4     3  ar
     5     4     5  ar
     6    10     4   1
     7     5     6  ar
     8     8     5   1
     9     6     7   1
    10     9     8   2
    11    10     9   1
    12    19    10   1
    13    15    11   2
    14    16    12   1
    15    17    13   1
    16    18    14   1
    17    14    19   1
    18    15    18   1
    19    27    15  am
    20    16    17   1
    21    18    16   1
    22    17    19   1
    23    20    21   2
    24    20    22   1
    25    28    20  am
    26    22    23   1
    27    23    24   1
    28    24    25   1
    29    25    26   1
    30    26    27   1
    31    29    28   1
    32    30    29   1
    33    29    32   1
    34    30    31   2
    35    44    30  am
    36    32    33   1
    37    33    34   1
    38    34    35   1
    39    35    36   1
    40    37    38   2
    41    39    37   1
    42    37    45  am
    43    40    39   1
    44    41    40   1
    45    42    41   1
    46    43    42   1
    47    43    44   1
    48    45    46   1
    49    46    47   1
    50    46    54   1
    51    47    48   1
    52    48    49   1
    53    49    50   1
    54    50    51  ar
    55    51    52  ar
    56    51    53  ar
    57    54    55   2
    58    54    56  am
    59    56    57   1
    60    57    58   1
    61    57    65   1
    62    58    59   1
    63    59    60   1
    64    60    61   1
    65    61    62  ar
    66    62    63  ar
    67    62    64  ar
    68    65    66   2
    69    65    67  am
    70     2    68   1
    71     7    69   1
    72     7    70   1
    73     9    71   1
    74    12    72   1
    75    13    73   1
    76    16    74   1
    77    17    75   1
    78    18    76   1
    79    19    77   1
    80    22    78   1
    81    22    79   1
    82    23    80   1
    83    23    81   1
    84    24    82   1
    85    24    83   1
    86    25    84   1
    87    25    85   1
    88    26    86   1
    89    26    87   1
    90    27    88   1
    91    28    89   1
    92    29    90   1
    93    32    91   1
    94    32    92   1
    95    33    93   1
    96    33    94   1
    97    34    95   1
    98    34    96   1
    99    35    97   1
   100    35    98   1
   101    36    99   1
   102    36   100   1
   103    36   101   1
   104    39   102   1
   105    39   103   1
   106    40   104   1
   107    40   105   1
   108    41   106   1
   109    41   107   1
   110    42   108   1
   111    42   109   1
   112    43   110   1
   113    43   111   1
   114    44   112   1
   115    45   113   1
   116    46   114   1
   117    47   115   1
   118    47   116   1
   119    48   117   1
   120    48   118   1
   121    49   119   1
   122    49   120   1
   123    50   121   1
   124    52   122   1
   125    52   123   1
   126    53   124   1
   127    53   125   1
   128    56   126   1
   129    57   127   1
   130    58   128   1
   131    58   129   1
   132    59   130   1
   133    59   131   1
   134    60   132   1
   135    60   133   1
   136    61   134   1
   137    63   135   1
   138    63   136   1
   139    64   137   1
   140    64   138   1
   141    67   139   1
   142    67   140   1
@<TRIPOS>SUBSTRUCTURE
     1  A02      2

