@<TRIPOS>MOLECULE
3ag9_ligand_042
   140   142
SMALL
GAST_HUCK
****
This file was generated by PARSER (from files_GN.cpp)

@<TRIPOS>ATOM
      1 N1         16.6348   25.4429    5.2917 N.ar        1 A02      -0.2698
      2 C2         17.7140   24.7369    5.7334 C.ar        1 A02       0.0533
      3 N3         17.7358   23.3800    5.6205 N.ar        1 A02      -0.2714
      4 C4         16.6798   22.7304    5.0711 C.ar        1 A02       0.1613
      5 C5         15.5697   23.4333    4.6159 C.ar        1 A02       0.1045
      6 C6         15.5550   24.8346    4.7318 C.ar        1 A02       0.1298
      7 N6         14.5189   25.5730    4.3004 N.pl3       1 A02      -0.3152
      8 N7         14.6865   22.5575    4.1223 N.2         1 A02      -0.2958
      9 C8         15.2384   21.3379    4.2723 C.2         1 A02       0.1123
     10 N9         16.4551   21.4207    4.8560 N.pl3       1 A02      -0.1918
     11 OAL        14.8092   17.7833    4.0763 O.2         1 A02      -0.3941
     12 OAN        16.6940   18.0580    7.9810 O.3         1 A02      -0.3840
     13 OAO        18.6793   19.7113    7.1584 O.3         1 A02      -0.3834
     14 OBV        17.0297   19.1199    4.5318 O.3         1 A02      -0.3181
     15 CCC        15.4830   17.3545    5.0107 C.2         1 A02       0.2080
     16 CCK        16.4083   18.8515    6.8253 C.3         1 A02       0.1295
     17 CCL        17.3608   20.0470    6.7142 C.3         1 A02       0.1408
     18 CCM        16.6375   18.1163    5.4807 C.3         1 A02       0.1788
     19 CCN        17.3563   20.3506    5.1980 C.3         1 A02       0.2035
     20 CBZ        10.5517   10.6521    7.0840 C.2         1 A02       0.1782
     21 OAI        10.7169    9.7908    6.2234 O.2         1 A02      -0.3969
     22 CBG        10.5679   12.0405    6.6925 C.3         1 A02       0.0374
     23 CAX        12.0193   12.5880    6.6050 C.3         1 A02      -0.0360
     24 CAU        12.0550   14.1347    6.5477 C.3         1 A02      -0.0492
     25 CAW        13.4939   14.7236    6.6493 C.3         1 A02      -0.0326
     26 CBD        13.9482   15.4757    5.3737 C.3         1 A02       0.0310
     27 NBR        15.1458   16.2255    5.6200 N.am        1 A02      -0.2847
     28 NBS        10.4225   10.3428    8.3659 N.am        1 A02      -0.2656
     29 CCI        10.4653    9.0270    8.9330 C.3         1 A02       0.1308
     30 CCB        11.8462    8.6339    9.2064 C.2         1 A02       0.2016
     31 OAK        12.2728    7.5929    8.7243 O.2         1 A02      -0.3945
     32 CBJ         9.5595    8.9667   10.2145 C.3         1 A02      -0.0122
     33 CAZ         8.8184    7.6098   10.4224 C.3         1 A02      -0.0440
     34 CAS         7.3466    7.5718    9.9229 C.3         1 A02      -0.0124
     35 CAR         7.1552    7.7387    8.3951 C.3         1 A02      -0.0354
     36 NAC         5.7408    7.6507    8.0167 N.4         1 A02       0.2185
     37 CCA        17.1370    5.9854    8.1319 C.2         1 A02       0.1782
     38 OAJ        17.6682    4.9276    8.4675 O.2         1 A02      -0.3969
     39 CBH        15.6994    6.1234    8.3152 C.3         1 A02       0.0374
     40 CAY        15.2166    5.9564    9.7857 C.3         1 A02      -0.0360
     41 CAT        15.5182    7.1423   10.7541 C.3         1 A02      -0.0492
     42 CAV        14.2890    8.0235   11.1274 C.3         1 A02      -0.0326
     43 CBC        14.0238    9.2293   10.1744 C.3         1 A02       0.0310
     44 NBQ        12.6346    9.4420    9.9158 N.am        1 A02      -0.2851
     45 NBT        17.8367    6.9415    7.5314 N.am        1 A02      -0.2656
     46 CCJ        19.2633    6.9862    7.3518 C.3         1 A02       0.1310
     47 CBK        19.6553    8.2650    6.5203 C.3         1 A02      -0.0092
     48 CBB        21.0206    8.9022    6.9106 C.3         1 A02      -0.0156
     49 CBF        21.4974   10.0634    5.9935 C.3         1 A02       0.0627
     50 NBP        20.5076   11.0009    5.7047 N.pl3       1 A02      -0.2723
     51 CBX        20.6520   12.1012    5.0644 C.cat       1 A02       0.2882
     52 NAB        21.7674   12.5641    4.6317 N.pl3       1 A02      -0.2849
     53 NAE        19.6080   12.8040    4.8450 N.pl3       1 A02      -0.2849
     54 CCD        19.7521    5.7507    6.7354 C.2         1 A02       0.2039
     55 OAM        19.2656    5.4128    5.6598 O.2         1 A02      -0.3944
     56 N          20.5753    4.9378    7.3951 N.am        1 A02      -0.2637
     57 CA         20.9142    3.5812    7.0570 C.3         1 A02       0.1307
     58 CB         20.1919    2.6269    8.0636 C.3         1 A02      -0.0092
     59 CG         20.3789    2.9077    9.5901 C.3         1 A02      -0.0156
     60 CD         19.5524    1.9581   10.5020 C.3         1 A02       0.0627
     61 NE         19.3546    0.6756    9.9751 N.pl3       1 A02      -0.2723
     62 CZ         20.2185   -0.2600    9.8149 C.cat       1 A02       0.2882
     63 NH1        21.4537   -0.1811   10.1308 N.pl3       1 A02      -0.2849
     64 NH2        19.8067   -1.3479    9.2822 N.pl3       1 A02      -0.2849
     65 C          22.3555    3.4315    6.9237 C.2         1 A02       0.1992
     66 O          22.9345    4.0433    6.0342 O.2         1 A02      -0.3947
     67 NAF        23.0854    2.5850    7.6316 N.am        1 A02      -0.2990
     68 H1         18.5116   25.2275    6.1425 H           1 A02       0.0996
     69 H2         13.7496   25.1416    3.8997 H           1 A02       0.1820
     70 H3         14.5465   26.5390    4.3805 H           1 A02       0.1820
     71 H4         14.7751   20.4715    3.9875 H           1 A02       0.1349
     72 H5         16.3691   17.1535    7.8004 H           1 A02       0.2102
     73 H6         19.2046   20.5352    7.0347 H           1 A02       0.2101
     74 H7         15.3787   19.2199    6.8938 H           1 A02       0.0673
     75 H8         16.9977   20.8862    7.3193 H           1 A02       0.0678
     76 H9         17.4726   17.4215    5.5912 H           1 A02       0.0869
     77 H10        18.3606   20.6298    4.8664 H           1 A02       0.0998
     78 H11        10.0063   12.6377    7.4178 H           1 A02       0.0502
     79 H12        10.0739   12.1608    5.7239 H           1 A02       0.0502
     80 H13        12.5045   12.1845    5.7082 H           1 A02       0.0290
     81 H14        12.5900   12.2560    7.4818 H           1 A02       0.0290
     82 H15        11.4606   14.5153    7.3810 H           1 A02       0.0267
     83 H16        11.5587   14.4594    5.6291 H           1 A02       0.0267
     84 H17        14.2293   13.9422    6.8588 H           1 A02       0.0285
     85 H18        13.5211   15.4205    7.4882 H           1 A02       0.0285
     86 H19        13.1581   16.1728    5.0706 H           1 A02       0.0520
     87 H20        14.1212   14.7686    4.5581 H           1 A02       0.0520
     88 H21        15.7156   15.9127    6.3402 H           1 A02       0.1851
     89 H22        10.3410   11.0730    8.9954 H           1 A02       0.1883
     90 H23        10.0352    8.3426    8.1899 H           1 A02       0.0800
     91 H24         8.8131    9.7695   10.1791 H           1 A02       0.0312
     92 H25        10.1745    9.1740   11.0997 H           1 A02       0.0312
     93 H26         8.7947    7.4085   11.4948 H           1 A02       0.0269
     94 H27         9.3869    6.8047    9.9598 H           1 A02       0.0269
     95 H28         6.7812    8.3585   10.4276 H           1 A02       0.0317
     96 H29         6.9156    6.6164   10.2211 H           1 A02       0.0317
     97 H30         7.7113    6.9630    7.8572 H           1 A02       0.0813
     98 H31         7.5104    8.7192    8.0712 H           1 A02       0.0813
     99 H32         5.6513    7.7693    7.0050 H           1 A02       0.1994
    100 H33         5.2154    8.3859    8.4925 H           1 A02       0.1994
    101 H34         5.3722    6.7401    8.2851 H           1 A02       0.1994
    102 H35        15.2087    5.3569    7.6997 H           1 A02       0.0502
    103 H36        15.3501    7.0929    7.9367 H           1 A02       0.0502
    104 H37        15.6802    5.0503   10.1878 H           1 A02       0.0290
    105 H38        14.1430    5.7613    9.7567 H           1 A02       0.0290
    106 H39        16.3160    7.7777   10.3629 H           1 A02       0.0267
    107 H40        15.8963    6.7173   11.6867 H           1 A02       0.0267
    108 H41        14.4433    8.4263   12.1374 H           1 A02       0.0285
    109 H42        13.4017    7.3843   11.1902 H           1 A02       0.0285
    110 H43        14.5566    9.1167    9.2280 H           1 A02       0.0520
    111 H44        14.4130   10.1380   10.6436 H           1 A02       0.0520
    112 H45        12.2403   10.2689   10.2359 H           1 A02       0.1851
    113 H46        17.3346    7.7143    7.2211 H           1 A02       0.1883
    114 H47        19.6895    7.1015    8.3514 H           1 A02       0.0800
    115 H48        18.8813    9.0349    6.6537 H           1 A02       0.0313
    116 H49        19.6683    8.0282    5.4438 H           1 A02       0.0313
    117 H50        21.7832    8.1138    6.8995 H           1 A02       0.0301
    118 H51        20.9468    9.2635    7.9444 H           1 A02       0.0301
    119 H52        21.8568    9.6312    5.0608 H           1 A02       0.0689
    120 H53        22.3382   10.5444    6.4948 H           1 A02       0.0689
    121 H54        19.6361   10.8034    5.9781 H           1 A02       0.2642
    122 H55        21.7880   13.3796    4.1723 H           1 A02       0.2615
    123 H56        22.5575   12.0891    4.7738 H           1 A02       0.2615
    124 H57        18.7646   12.5045    5.1293 H           1 A02       0.2615
    125 H58        19.6703   13.6186    4.3801 H           1 A02       0.2615
    126 H59        20.9159    5.2652    8.2408 H           1 A02       0.1883
    127 H60        20.5072    3.3128    6.0712 H           1 A02       0.0800
    128 H61        20.5321    1.6065    7.8665 H           1 A02       0.0313
    129 H62        19.1180    2.6500    7.8421 H           1 A02       0.0313
    130 H63        20.0857    3.9389    9.8094 H           1 A02       0.0301
    131 H64        21.4392    2.8188    9.8424 H           1 A02       0.0301
    132 H65        18.5698    2.4127   10.6359 H           1 A02       0.0689
    133 H66        20.0216    1.8997   11.4835 H           1 A02       0.0689
    134 H67        18.4805    0.4612    9.7294 H           1 A02       0.2642
    135 H68        22.0273   -0.9005    9.9586 H           1 A02       0.2615
    136 H69        21.7941    0.5930   10.5203 H           1 A02       0.2615
    137 H70        18.9101   -1.4328    9.0343 H           1 A02       0.2615
    138 H71        20.4014   -2.0475    9.1096 H           1 A02       0.2615
    139 H72        24.0307    2.4866    7.4449 H           1 A02       0.1815
    140 H73        22.6644    2.0101    8.2863 H           1 A02       0.1815
@<TRIPOS>BOND
     1     2     1  ar
     2     6     1  ar
     3     3     2  ar
     4     4     3  ar
     5     4     5  ar
     6    10     4   1
     7     5     6  ar
     8     8     5   1
     9     6     7   1
    10     9     8   2
    11    10     9   1
    12    19    10   1
    13    15    11   2
    14    16    12   1
    15    17    13   1
    16    18    14   1
    17    14    19   1
    18    15    18   1
    19    27    15  am
    20    16    17   1
    21    18    16   1
    22    17    19   1
    23    20    21   2
    24    20    22   1
    25    28    20  am
    26    22    23   1
    27    23    24   1
    28    24    25   1
    29    25    26   1
    30    26    27   1
    31    29    28   1
    32    30    29   1
    33    29    32   1
    34    30    31   2
    35    44    30  am
    36    32    33   1
    37    33    34   1
    38    34    35   1
    39    35    36   1
    40    37    38   2
    41    39    37   1
    42    37    45  am
    43    40    39   1
    44    41    40   1
    45    42    41   1
    46    43    42   1
    47    43    44   1
    48    45    46   1
    49    46    47   1
    50    46    54   1
    51    47    48   1
    52    48    49   1
    53    49    50   1
    54    50    51  ar
    55    51    52  ar
    56    51    53  ar
    57    54    55   2
    58    54    56  am
    59    56    57   1
    60    57    58   1
    61    57    65   1
    62    58    59   1
    63    59    60   1
    64    60    61   1
    65    61    62  ar
    66    62    63  ar
    67    62    64  ar
    68    65    66   2
    69    65    67  am
    70     2    68   1
    71     7    69   1
    72     7    70   1
    73     9    71   1
    74    12    72   1
    75    13    73   1
    76    16    74   1
    77    17    75   1
    78    18    76   1
    79    19    77   1
    80    22    78   1
    81    22    79   1
    82    23    80   1
    83    23    81   1
    84    24    82   1
    85    24    83   1
    86    25    84   1
    87    25    85   1
    88    26    86   1
    89    26    87   1
    90    27    88   1
    91    28    89   1
    92    29    90   1
    93    32    91   1
    94    32    92   1
    95    33    93   1
    96    33    94   1
    97    34    95   1
    98    34    96   1
    99    35    97   1
   100    35    98   1
   101    36    99   1
   102    36   100   1
   103    36   101   1
   104    39   102   1
   105    39   103   1
   106    40   104   1
   107    40   105   1
   108    41   106   1
   109    41   107   1
   110    42   108   1
   111    42   109   1
   112    43   110   1
   113    43   111   1
   114    44   112   1
   115    45   113   1
   116    46   114   1
   117    47   115   1
   118    47   116   1
   119    48   117   1
   120    48   118   1
   121    49   119   1
   122    49   120   1
   123    50   121   1
   124    52   122   1
   125    52   123   1
   126    53   124   1
   127    53   125   1
   128    56   126   1
   129    57   127   1
   130    58   128   1
   131    58   129   1
   132    59   130   1
   133    59   131   1
   134    60   132   1
   135    60   133   1
   136    61   134   1
   137    63   135   1
   138    63   136   1
   139    64   137   1
   140    64   138   1
   141    67   139   1
   142    67   140   1
@<TRIPOS>SUBSTRUCTURE
     1  A02      2

