@<TRIPOS>MOLECULE
3ag9_ligand_037
   140   142
SMALL
GAST_HUCK
****
This file was generated by PARSER (from files_GN.cpp)

@<TRIPOS>ATOM
      1 N1          8.2678    3.6670   17.1566 N.ar        1 A02      -0.2698
      2 C2          7.3651    4.1543   16.2581 C.ar        1 A02       0.0533
      3 N3          7.6668    4.1917   14.9338 N.ar        1 A02      -0.2714
      4 C4          8.8770    3.7496   14.5036 C.ar        1 A02       0.1613
      5 C5          9.8201    3.2544   15.4040 C.ar        1 A02       0.1045
      6 C6          9.4928    3.2123   16.7697 C.ar        1 A02       0.1298
      7 N6         10.3454    2.7209   17.6856 N.pl3       1 A02      -0.3152
      8 N7         10.9112    2.8866   14.7174 N.2         1 A02      -0.2958
      9 C8         10.6468    3.1481   13.4234 C.2         1 A02       0.1123
     10 N9          9.4068    3.6721   13.2709 N.pl3       1 A02      -0.1918
     11 OAL        11.9673    4.3282    9.8900 O.2         1 A02      -0.3941
     12 OAN         9.4342    7.0893   10.0874 O.3         1 A02      -0.3840
     13 OAO         7.3275    5.9851   11.4653 O.3         1 A02      -0.3834
     14 OBV         9.4359    3.5593   10.8929 O.3         1 A02      -0.3181
     15 CCC        10.9214    4.3929    9.2537 C.2         1 A02       0.2080
     16 CCK         9.7077    5.9136   10.8481 C.3         1 A02       0.1295
     17 CCL         8.6339    5.6003   11.8995 C.3         1 A02       0.1408
     18 CCM         9.6868    4.6369    9.9841 C.3         1 A02       0.1788
     19 CCN         8.7456    4.0610   12.0528 C.3         1 A02       0.2035
     20 CBZ        16.8953    1.5040    5.9005 C.2         1 A02       0.1782
     21 OAI        17.1001    1.3335    4.7030 O.2         1 A02      -0.3969
     22 CBG        15.9225    0.6477    6.5592 C.3         1 A02       0.0374
     23 CAX        14.4389    0.9932    6.2411 C.3         1 A02      -0.0360
     24 CAU        14.0379    2.4539    6.5988 C.3         1 A02      -0.0492
     25 CAW        12.5894    2.5907    7.1416 C.3         1 A02      -0.0326
     26 CBD        12.0745    4.0589    7.1100 C.3         1 A02       0.0310
     27 NBR        10.9159    4.2622    7.9316 N.am        1 A02      -0.2847
     28 NBS        17.4940    2.4718    6.5891 N.am        1 A02      -0.2656
     29 CCI        18.4895    3.4153    6.1577 C.3         1 A02       0.1308
     30 CCB        17.9464    4.7728    6.1835 C.2         1 A02       0.2016
     31 OAK        17.3077    5.1502    7.1623 O.2         1 A02      -0.3945
     32 CBJ        19.7858    3.2996    7.0214 C.3         1 A02      -0.0122
     33 CAZ        19.6119    2.7212    8.4612 C.3         1 A02      -0.0440
     34 CAS        20.8290    2.8892    9.4092 C.3         1 A02      -0.0124
     35 CAR        22.2375    2.7755    8.7630 C.3         1 A02      -0.0354
     36 NAC        22.5879    1.4092    8.3566 N.4         1 A02       0.2185
     37 CCA        18.9165   12.3744    4.9307 C.2         1 A02       0.1782
     38 OAJ        18.5061   12.0735    6.0448 O.2         1 A02      -0.3969
     39 CBH        20.0858   11.6826    4.4062 C.3         1 A02       0.0374
     40 CAY        20.2402   10.1965    4.8484 C.3         1 A02      -0.0360
     41 CAT        18.9953    9.2967    4.5801 C.3         1 A02      -0.0492
     42 CAV        19.1868    7.8615    5.1409 C.3         1 A02      -0.0326
     43 CBC        17.8983    7.0012    5.0981 C.3         1 A02       0.0310
     44 NBQ        18.2413    5.6175    5.1983 N.am        1 A02      -0.2851
     45 NBT        18.3321   13.3279    4.2118 N.am        1 A02      -0.2656
     46 CCJ        17.1533   14.0933    4.5169 C.3         1 A02       0.1310
     47 CBK        17.3914   15.5271    5.0957 C.3         1 A02      -0.0092
     48 CBB        18.4652   15.6555    6.2053 C.3         1 A02      -0.0156
     49 CBF        18.6121   17.0871    6.7954 C.3         1 A02       0.0627
     50 NBP        17.9530   17.2274    8.0219 N.pl3       1 A02      -0.2723
     51 CBX        18.1242   18.1555    8.8933 C.cat       1 A02       0.2882
     52 NAB        18.8954   19.1686    8.7751 N.pl3       1 A02      -0.2849
     53 NAE        17.4906   18.0493   10.0049 N.pl3       1 A02      -0.2849
     54 CCD        16.1600   13.3098    5.2507 C.2         1 A02       0.2039
     55 OAM        16.3813   12.9513    6.4005 O.2         1 A02      -0.3944
     56 N          15.0033   13.0141    4.6616 N.am        1 A02      -0.2637
     57 CA         13.8500   12.3658    5.2254 C.3         1 A02       0.1307
     58 CB         13.1630   13.1877    6.3748 C.3         1 A02      -0.0092
     59 CG         13.3398   14.7339    6.3554 C.3         1 A02      -0.0156
     60 CD         12.9560   15.4834    5.0521 C.3         1 A02       0.0627
     61 NE         11.5932   15.7699    4.9882 N.pl3       1 A02      -0.2723
     62 CZ         11.0447   16.7297    4.3212 C.cat       1 A02       0.2882
     63 NH1        11.6882   17.5549    3.5769 N.pl3       1 A02      -0.2849
     64 NH2         9.7807   16.8750    4.4154 N.pl3       1 A02      -0.2849
     65 C          14.1729   10.9736    5.5369 C.2         1 A02       0.1992
     66 O          14.3114   10.5831    6.6980 O.2         1 A02      -0.3947
     67 NAF        14.4617   10.1065    4.5900 N.am        1 A02      -0.2990
     68 H1          6.4582    4.4902   16.5829 H           1 A02       0.0996
     69 H2         11.2162    2.3865   17.4130 H           1 A02       0.1820
     70 H3         10.0831    2.6683   18.6191 H           1 A02       0.1820
     71 H4         11.3087    2.9667   12.6683 H           1 A02       0.1349
     72 H5          9.4784    7.8270   10.7314 H           1 A02       0.2102
     73 H6          7.1438    5.4525   10.6632 H           1 A02       0.2101
     74 H7         10.6755    6.0326   11.3470 H           1 A02       0.0673
     75 H8          8.8454    6.1324   12.8311 H           1 A02       0.0678
     76 H9          8.8394    4.6893    9.2898 H           1 A02       0.0869
     77 H10         7.7528    3.6038   12.0479 H           1 A02       0.0998
     78 H11        16.0512    0.6957    7.6462 H           1 A02       0.0502
     79 H12        16.1101   -0.3907    6.2714 H           1 A02       0.0502
     80 H13        13.8084    0.2981    6.8047 H           1 A02       0.0290
     81 H14        14.2436    0.8239    5.1781 H           1 A02       0.0290
     82 H15        14.1467    3.0770    5.7055 H           1 A02       0.0267
     83 H16        14.7155    2.8411    7.3653 H           1 A02       0.0267
     84 H17        12.5735    2.2142    8.1690 H           1 A02       0.0285
     85 H18        11.9123    1.9671    6.5517 H           1 A02       0.0285
     86 H19        11.8045    4.3099    6.0802 H           1 A02       0.0520
     87 H20        12.8581    4.7582    7.4183 H           1 A02       0.0520
     88 H21        10.0648    4.3599    7.4725 H           1 A02       0.1851
     89 H22        17.2041    2.5601    7.5143 H           1 A02       0.1883
     90 H23        18.7809    3.1792    5.1261 H           1 A02       0.0800
     91 H24        20.2677    4.2782    7.0845 H           1 A02       0.0312
     92 H25        20.4909    2.6499    6.4910 H           1 A02       0.0312
     93 H26        19.3745    1.6551    8.3813 H           1 A02       0.0269
     94 H27        18.7538    3.2087    8.9351 H           1 A02       0.0269
     95 H28        20.7478    2.1293   10.1961 H           1 A02       0.0317
     96 H29        20.7550    3.8664    9.8974 H           1 A02       0.0317
     97 H30        22.9856    3.1211    9.4763 H           1 A02       0.0813
     98 H31        22.2831    3.4262    7.8842 H           1 A02       0.0813
     99 H32        23.3828    1.4643    7.7116 H           1 A02       0.1994
    100 H33        21.7989    0.9724    7.8723 H           1 A02       0.1994
    101 H34        22.8354    0.8562    9.1817 H           1 A02       0.1994
    102 H35        20.9739   12.2273    4.7590 H           1 A02       0.0502
    103 H36        20.0942   11.7076    3.3051 H           1 A02       0.0502
    104 H37        20.4795   10.1659    5.9188 H           1 A02       0.0290
    105 H38        21.0987    9.7783    4.3149 H           1 A02       0.0290
    106 H39        18.8286    9.2373    3.4982 H           1 A02       0.0267
    107 H40        18.1138    9.7559    5.0439 H           1 A02       0.0267
    108 H41        19.5289    7.9206    6.1800 H           1 A02       0.0285
    109 H42        19.9685    7.3653    4.5551 H           1 A02       0.0285
    110 H43        17.3875    7.1467    4.1440 H           1 A02       0.0520
    111 H44        17.2237    7.3314    5.8944 H           1 A02       0.0520
    112 H45        18.7816    5.2616    4.4776 H           1 A02       0.1851
    113 H46        18.7280   13.5026    3.3406 H           1 A02       0.1883
    114 H47        16.7296   14.2910    3.5264 H           1 A02       0.0800
    115 H48        16.4506   15.9399    5.4675 H           1 A02       0.0313
    116 H49        17.7064   16.1759    4.2780 H           1 A02       0.0313
    117 H50        19.4280   15.3865    5.7722 H           1 A02       0.0301
    118 H51        18.2586   14.9593    7.0245 H           1 A02       0.0301
    119 H52        18.2388   17.8328    6.0865 H           1 A02       0.0689
    120 H53        19.6756   17.2867    6.9665 H           1 A02       0.0689
    121 H54        17.3598   16.5516    8.2733 H           1 A02       0.2642
    122 H55        18.9631   19.7796    9.4875 H           1 A02       0.2615
    123 H56        19.3972   19.2991    7.9958 H           1 A02       0.2615
    124 H57        16.9262   17.3173   10.1506 H           1 A02       0.2615
    125 H58        17.5966   18.7091   10.6658 H           1 A02       0.2615
    126 H59        14.8971   13.3062    3.7400 H           1 A02       0.1883
    127 H60        13.1112   12.3224    4.4134 H           1 A02       0.0800
    128 H61        13.5499   12.8534    7.3415 H           1 A02       0.0313
    129 H62        12.0890   12.9623    6.3674 H           1 A02       0.0313
    130 H63        14.3820   14.9635    6.5804 H           1 A02       0.0301
    131 H64        12.7575   15.1489    7.1801 H           1 A02       0.0301
    132 H65        13.2490   14.9150    4.1693 H           1 A02       0.0689
    133 H66        13.5312   16.4135    5.0417 H           1 A02       0.0689
    134 H67        11.0248   15.2607    5.5212 H           1 A02       0.2642
    135 H68        11.2239   18.2213    3.1218 H           1 A02       0.2615
    136 H69        12.6108   17.4846    3.4833 H           1 A02       0.2615
    137 H70         9.2829   16.2992    4.9549 H           1 A02       0.2615
    138 H71         9.3552   17.5614    3.9469 H           1 A02       0.2615
    139 H72        14.7342    9.2012    4.8269 H           1 A02       0.1815
    140 H73        14.4177   10.3714    3.6498 H           1 A02       0.1815
@<TRIPOS>BOND
     1     2     1  ar
     2     6     1  ar
     3     3     2  ar
     4     4     3  ar
     5     4     5  ar
     6    10     4   1
     7     5     6  ar
     8     8     5   1
     9     6     7   1
    10     9     8   2
    11    10     9   1
    12    19    10   1
    13    15    11   2
    14    16    12   1
    15    17    13   1
    16    18    14   1
    17    14    19   1
    18    15    18   1
    19    27    15  am
    20    16    17   1
    21    18    16   1
    22    17    19   1
    23    20    21   2
    24    20    22   1
    25    28    20  am
    26    22    23   1
    27    23    24   1
    28    24    25   1
    29    25    26   1
    30    26    27   1
    31    29    28   1
    32    30    29   1
    33    29    32   1
    34    30    31   2
    35    44    30  am
    36    32    33   1
    37    33    34   1
    38    34    35   1
    39    35    36   1
    40    37    38   2
    41    39    37   1
    42    37    45  am
    43    40    39   1
    44    41    40   1
    45    42    41   1
    46    43    42   1
    47    43    44   1
    48    45    46   1
    49    46    47   1
    50    46    54   1
    51    47    48   1
    52    48    49   1
    53    49    50   1
    54    50    51  ar
    55    51    52  ar
    56    51    53  ar
    57    54    55   2
    58    54    56  am
    59    56    57   1
    60    57    58   1
    61    57    65   1
    62    58    59   1
    63    59    60   1
    64    60    61   1
    65    61    62  ar
    66    62    63  ar
    67    62    64  ar
    68    65    66   2
    69    65    67  am
    70     2    68   1
    71     7    69   1
    72     7    70   1
    73     9    71   1
    74    12    72   1
    75    13    73   1
    76    16    74   1
    77    17    75   1
    78    18    76   1
    79    19    77   1
    80    22    78   1
    81    22    79   1
    82    23    80   1
    83    23    81   1
    84    24    82   1
    85    24    83   1
    86    25    84   1
    87    25    85   1
    88    26    86   1
    89    26    87   1
    90    27    88   1
    91    28    89   1
    92    29    90   1
    93    32    91   1
    94    32    92   1
    95    33    93   1
    96    33    94   1
    97    34    95   1
    98    34    96   1
    99    35    97   1
   100    35    98   1
   101    36    99   1
   102    36   100   1
   103    36   101   1
   104    39   102   1
   105    39   103   1
   106    40   104   1
   107    40   105   1
   108    41   106   1
   109    41   107   1
   110    42   108   1
   111    42   109   1
   112    43   110   1
   113    43   111   1
   114    44   112   1
   115    45   113   1
   116    46   114   1
   117    47   115   1
   118    47   116   1
   119    48   117   1
   120    48   118   1
   121    49   119   1
   122    49   120   1
   123    50   121   1
   124    52   122   1
   125    52   123   1
   126    53   124   1
   127    53   125   1
   128    56   126   1
   129    57   127   1
   130    58   128   1
   131    58   129   1
   132    59   130   1
   133    59   131   1
   134    60   132   1
   135    60   133   1
   136    61   134   1
   137    63   135   1
   138    63   136   1
   139    64   137   1
   140    64   138   1
   141    67   139   1
   142    67   140   1
@<TRIPOS>SUBSTRUCTURE
     1  A02      2

