@<TRIPOS>MOLECULE
3ag9_ligand_087
   140   142
SMALL
GAST_HUCK
****
This file was generated by PARSER (from files_GN.cpp)

@<TRIPOS>ATOM
      1 N1         13.3311    6.9199    4.7122 N.ar        1 A02      -0.2698
      2 C2         13.2131    7.5556    5.9103 C.ar        1 A02       0.0533
      3 N3         11.9834    7.8217    6.4202 N.ar        1 A02      -0.2714
      4 C4         10.8668    7.4528    5.7377 C.ar        1 A02       0.1613
      5 C5         10.9695    6.7984    4.5112 C.ar        1 A02       0.1045
      6 C6         12.2459    6.5289    3.9909 C.ar        1 A02       0.1298
      7 N6         12.4144    5.9077    2.8140 N.pl3       1 A02      -0.3152
      8 N7          9.7347    6.5473    4.0555 N.2         1 A02      -0.2958
      9 C8          8.8855    7.0346    4.9774 C.2         1 A02       0.1123
     10 N9          9.5558    7.5926    6.0107 N.pl3       1 A02      -0.1918
     11 OAL        10.2552    6.6909   10.3412 O.2         1 A02      -0.3941
     12 OAN         6.8330    8.7960    9.3968 O.3         1 A02      -0.3840
     13 OAO         6.7251    7.1186    7.2533 O.3         1 A02      -0.3834
     14 OBV         9.9039    8.5950    8.1575 O.3         1 A02      -0.3181
     15 CCC        10.1956    7.9164   10.3786 C.2         1 A02       0.2080
     16 CCK         7.9090    7.8577    9.3024 C.3         1 A02       0.1295
     17 CCL         7.9925    7.2341    7.9001 C.3         1 A02       0.1408
     18 CCM         9.2847    8.5677    9.4519 C.3         1 A02       0.1788
     19 CCN         8.9440    8.1938    7.1658 C.3         1 A02       0.2035
     20 CBZ        12.6488    3.6876   11.7772 C.2         1 A02       0.1782
     21 OAI        13.7279    3.7643   12.3424 O.2         1 A02      -0.3969
     22 CBG        11.4600    3.5901   12.6082 C.3         1 A02       0.0374
     23 CAX        11.3589    4.6313   13.7552 C.3         1 A02      -0.0360
     24 CAU        11.0644    6.0955   13.3246 C.3         1 A02      -0.0492
     25 CAW        12.1982    6.8016   12.5252 C.3         1 A02      -0.0326
     26 CBD        11.8992    8.2894   12.1982 C.3         1 A02       0.0310
     27 NBR        10.9570    8.6504   11.1838 N.am        1 A02      -0.2847
     28 NBS        12.5452    3.5643   10.4525 N.am        1 A02      -0.2656
     29 CCI        13.5846    3.4667    9.4581 C.3         1 A02       0.1308
     30 CCB        14.2049    4.7562    9.1506 C.2         1 A02       0.2016
     31 OAK        14.4712    4.9940    7.9772 O.2         1 A02      -0.3945
     32 CBJ        14.5933    2.2971    9.7219 C.3         1 A02      -0.0122
     33 CAZ        15.9265    2.2896    8.9106 C.3         1 A02      -0.0440
     34 CAS        17.0281    3.2387    9.4774 C.3         1 A02      -0.0124
     35 CAR        18.4343    3.0692    8.8581 C.3         1 A02      -0.0354
     36 NAC        19.3109    2.2589    9.7150 N.4         1 A02       0.2185
     37 CCA        14.7258   11.9817    6.4586 C.2         1 A02       0.1782
     38 OAJ        14.0345   11.3306    5.6731 O.2         1 A02      -0.3969
     39 CBH        15.5017   11.2674    7.4584 C.3         1 A02       0.0374
     40 CAY        14.6198   10.3658    8.3831 C.3         1 A02      -0.0360
     41 CAT        15.4246    9.2012    9.0241 C.3         1 A02      -0.0492
     42 CAV        14.5180    8.0327    9.5024 C.3         1 A02      -0.0326
     43 CBC        15.3495    6.7932    9.9359 C.3         1 A02       0.0310
     44 NBQ        14.5747    5.6007   10.1083 N.am        1 A02      -0.2851
     45 NBT        14.7095   13.3069    6.4571 N.am        1 A02      -0.2656
     46 CCJ        13.9144   14.2031    5.6643 C.3         1 A02       0.1310
     47 CBK        12.5973   13.5375    5.1425 C.3         1 A02      -0.0092
     48 CBB        11.4674   14.5450    4.7913 C.3         1 A02      -0.0156
     49 CBF        10.0311   14.0077    4.9968 C.3         1 A02       0.0627
     50 NBP         9.9063   13.3431    6.2261 N.pl3       1 A02      -0.2723
     51 CBX        10.0616   12.0983    6.4913 C.cat       1 A02       0.2882
     52 NAB        10.3573   11.1890    5.6399 N.pl3       1 A02      -0.2849
     53 NAE         9.9256   11.7314    7.7089 N.pl3       1 A02      -0.2849
     54 CCD        14.7474   14.8849    4.6753 C.2         1 A02       0.2039
     55 OAM        14.4657   14.8456    3.4838 O.2         1 A02      -0.3944
     56 N          15.7878   15.6057    5.1056 N.am        1 A02      -0.2637
     57 CA         16.6159   16.4707    4.2951 C.3         1 A02       0.1307
     58 CB         18.0970   16.4848    4.7927 C.3         1 A02      -0.0092
     59 CG         18.4305   17.5307    5.9069 C.3         1 A02      -0.0156
     60 CD         18.9327   16.8908    7.2371 C.3         1 A02       0.0627
     61 NE         18.1219   17.1646    8.3435 N.pl3       1 A02      -0.2723
     62 CZ         18.1263   18.1867    9.1101 C.cat       1 A02       0.2882
     63 NH1        18.9033   19.1944    9.0064 N.pl3       1 A02      -0.2849
     64 NH2        17.2768   18.1924   10.0620 N.pl3       1 A02      -0.2849
     65 C          16.0931   17.8307    4.1703 C.2         1 A02       0.1992
     66 O          16.3331   18.4747    3.1583 O.2         1 A02      -0.3947
     67 NAF        15.3993   18.4373    5.1067 N.am        1 A02      -0.2990
     68 H1         14.0457    7.8340    6.4255 H           1 A02       0.0996
     69 H2         11.6430    5.6239    2.2983 H           1 A02       0.1820
     70 H3         13.3078    5.7482    2.4710 H           1 A02       0.1820
     71 H4          7.8668    6.9878    4.8894 H           1 A02       0.1349
     72 H5          7.0011    9.4643    8.6992 H           1 A02       0.2102
     73 H6          6.3218    6.3129    7.6343 H           1 A02       0.2101
     74 H7          7.7404    7.0836   10.0561 H           1 A02       0.0673
     75 H8          8.4481    6.2399    7.9644 H           1 A02       0.0678
     76 H9          9.1200    9.6093    9.7534 H           1 A02       0.0869
     77 H10         8.3961    9.0861    6.8483 H           1 A02       0.0998
     78 H11        11.4801    2.5954   13.0676 H           1 A02       0.0502
     79 H12        10.5492    3.6381   12.0029 H           1 A02       0.0502
     80 H13        12.2638    4.6093   14.3685 H           1 A02       0.0290
     81 H14        10.5339    4.3171   14.4025 H           1 A02       0.0290
     82 H15        10.8776    6.6668   14.2384 H           1 A02       0.0267
     83 H16        10.1374    6.1039   12.7442 H           1 A02       0.0267
     84 H17        12.4005    6.2651   11.5958 H           1 A02       0.0285
     85 H18        13.1144    6.7769   13.1228 H           1 A02       0.0285
     86 H19        12.8359    8.7819   11.9417 H           1 A02       0.0520
     87 H20        11.5547    8.7636   13.1214 H           1 A02       0.0520
     88 H21        10.9121    9.6049   11.0159 H           1 A02       0.1851
     89 H22        11.6422    3.4636   10.1099 H           1 A02       0.1883
     90 H23        13.0414    3.1576    8.5542 H           1 A02       0.0800
     91 H24        14.0641    1.3670    9.4827 H           1 A02       0.0312
     92 H25        14.8516    2.2384   10.7794 H           1 A02       0.0312
     93 H26        15.7172    2.5574    7.8681 H           1 A02       0.0269
     94 H27        16.3034    1.2599    8.9142 H           1 A02       0.0269
     95 H28        17.1236    3.0938   10.5587 H           1 A02       0.0317
     96 H29        16.7196    4.2723    9.3096 H           1 A02       0.0317
     97 H30        18.9012    4.0500    8.7498 H           1 A02       0.0813
     98 H31        18.3629    2.6114    7.8667 H           1 A02       0.0813
     99 H32        20.2500    2.2368    9.3154 H           1 A02       0.1994
    100 H33        18.9548    1.3050    9.7755 H           1 A02       0.1994
    101 H34        19.3559    2.6761   10.6469 H           1 A02       0.1994
    102 H35        16.0576   11.9672    8.0980 H           1 A02       0.0502
    103 H36        16.2395   10.6431    6.9345 H           1 A02       0.0502
    104 H37        13.7991    9.9360    7.7938 H           1 A02       0.0290
    105 H38        14.1832   10.9861    9.1793 H           1 A02       0.0290
    106 H39        16.0042    9.5817    9.8733 H           1 A02       0.0267
    107 H40        16.1194    8.8092    8.2734 H           1 A02       0.0267
    108 H41        13.8482    7.7557    8.6815 H           1 A02       0.0285
    109 H42        13.9041    8.3643   10.3406 H           1 A02       0.0285
    110 H43        15.8354    7.0082   10.8873 H           1 A02       0.0520
    111 H44        16.1355    6.5940    9.2007 H           1 A02       0.0520
    112 H45        14.3630    5.3490   11.0228 H           1 A02       0.1851
    113 H46        15.3097   13.7408    7.0853 H           1 A02       0.1883
    114 H47        13.6010   14.9796    6.3749 H           1 A02       0.0800
    115 H48        12.2305   12.8710    5.9268 H           1 A02       0.0313
    116 H49        12.8072   12.9243    4.2643 H           1 A02       0.0313
    117 H50        11.5818   14.8620    3.7527 H           1 A02       0.0301
    118 H51        11.5878   15.4360    5.4104 H           1 A02       0.0301
    119 H52         9.7330   13.3974    4.1366 H           1 A02       0.0689
    120 H53         9.3528   14.8640    5.0336 H           1 A02       0.0689
    121 H54         9.7055   13.8913    6.9615 H           1 A02       0.2642
    122 H55        10.4626   10.3066    5.9257 H           1 A02       0.2615
    123 H56        10.4804   11.3980    4.7400 H           1 A02       0.2615
    124 H57         9.7201   12.3588    8.3716 H           1 A02       0.2615
    125 H58        10.0371   10.8352    7.9407 H           1 A02       0.2615
    126 H59        15.9710   15.5758    6.0657 H           1 A02       0.1883
    127 H60        16.6358   16.0323    3.2922 H           1 A02       0.0800
    128 H61        18.7572   16.6715    3.9400 H           1 A02       0.0313
    129 H62        18.3498   15.4777    5.1409 H           1 A02       0.0313
    130 H63        17.5526   18.1504    6.1151 H           1 A02       0.0301
    131 H64        19.2067   18.2051    5.5432 H           1 A02       0.0301
    132 H65        19.9622   17.2034    7.4330 H           1 A02       0.0689
    133 H66        18.9357   15.8024    7.1383 H           1 A02       0.0689
    134 H67        17.4980   16.5002    8.5587 H           1 A02       0.2642
    135 H68        18.8233   19.8965    9.6215 H           1 A02       0.2615
    136 H69        19.5477   19.2340    8.3312 H           1 A02       0.2615
    137 H70        16.6955   17.4638   10.1699 H           1 A02       0.2615
    138 H71        17.2311   18.9227   10.6446 H           1 A02       0.2615
    139 H72        15.0784   19.3407    4.9575 H           1 A02       0.1815
    140 H73        15.2090   17.9919    5.9488 H           1 A02       0.1815
@<TRIPOS>BOND
     1     2     1  ar
     2     6     1  ar
     3     3     2  ar
     4     4     3  ar
     5     4     5  ar
     6    10     4   1
     7     5     6  ar
     8     8     5   1
     9     6     7   1
    10     9     8   2
    11    10     9   1
    12    19    10   1
    13    15    11   2
    14    16    12   1
    15    17    13   1
    16    18    14   1
    17    14    19   1
    18    15    18   1
    19    27    15  am
    20    16    17   1
    21    18    16   1
    22    17    19   1
    23    20    21   2
    24    20    22   1
    25    28    20  am
    26    22    23   1
    27    23    24   1
    28    24    25   1
    29    25    26   1
    30    26    27   1
    31    29    28   1
    32    30    29   1
    33    29    32   1
    34    30    31   2
    35    44    30  am
    36    32    33   1
    37    33    34   1
    38    34    35   1
    39    35    36   1
    40    37    38   2
    41    39    37   1
    42    37    45  am
    43    40    39   1
    44    41    40   1
    45    42    41   1
    46    43    42   1
    47    43    44   1
    48    45    46   1
    49    46    47   1
    50    46    54   1
    51    47    48   1
    52    48    49   1
    53    49    50   1
    54    50    51  ar
    55    51    52  ar
    56    51    53  ar
    57    54    55   2
    58    54    56  am
    59    56    57   1
    60    57    58   1
    61    57    65   1
    62    58    59   1
    63    59    60   1
    64    60    61   1
    65    61    62  ar
    66    62    63  ar
    67    62    64  ar
    68    65    66   2
    69    65    67  am
    70     2    68   1
    71     7    69   1
    72     7    70   1
    73     9    71   1
    74    12    72   1
    75    13    73   1
    76    16    74   1
    77    17    75   1
    78    18    76   1
    79    19    77   1
    80    22    78   1
    81    22    79   1
    82    23    80   1
    83    23    81   1
    84    24    82   1
    85    24    83   1
    86    25    84   1
    87    25    85   1
    88    26    86   1
    89    26    87   1
    90    27    88   1
    91    28    89   1
    92    29    90   1
    93    32    91   1
    94    32    92   1
    95    33    93   1
    96    33    94   1
    97    34    95   1
    98    34    96   1
    99    35    97   1
   100    35    98   1
   101    36    99   1
   102    36   100   1
   103    36   101   1
   104    39   102   1
   105    39   103   1
   106    40   104   1
   107    40   105   1
   108    41   106   1
   109    41   107   1
   110    42   108   1
   111    42   109   1
   112    43   110   1
   113    43   111   1
   114    44   112   1
   115    45   113   1
   116    46   114   1
   117    47   115   1
   118    47   116   1
   119    48   117   1
   120    48   118   1
   121    49   119   1
   122    49   120   1
   123    50   121   1
   124    52   122   1
   125    52   123   1
   126    53   124   1
   127    53   125   1
   128    56   126   1
   129    57   127   1
   130    58   128   1
   131    58   129   1
   132    59   130   1
   133    59   131   1
   134    60   132   1
   135    60   133   1
   136    61   134   1
   137    63   135   1
   138    63   136   1
   139    64   137   1
   140    64   138   1
   141    67   139   1
   142    67   140   1
@<TRIPOS>SUBSTRUCTURE
     1  A02      2

