@<TRIPOS>MOLECULE
3ag9_ligand_066
   140   142
SMALL
GAST_HUCK
****
This file was generated by PARSER (from files_GN.cpp)

@<TRIPOS>ATOM
      1 N1         13.1610    8.8310   12.9317 N.ar        1 A02      -0.2698
      2 C2         12.1351    8.5707   13.7931 C.ar        1 A02       0.0533
      3 N3         10.8713    8.4154   13.3267 N.ar        1 A02      -0.2714
      4 C4         10.6272    8.5154   11.9964 C.ar        1 A02       0.1613
      5 C5         11.6497    8.8169   11.0980 C.ar        1 A02       0.1045
      6 C6         12.9569    8.9613   11.5916 C.ar        1 A02       0.1298
      7 N6         14.0068    9.2284   10.7964 N.pl3       1 A02      -0.3152
      8 N7         11.1206    8.9047    9.8724 N.2         1 A02      -0.2958
      9 C8          9.8030    8.6486   10.0088 C.2         1 A02       0.1123
     10 N9          9.4847    8.3860   11.3027 N.pl3       1 A02      -0.1918
     11 OAL         6.2832    4.6926   14.4013 O.2         1 A02      -0.3941
     12 OAN         5.3199    5.8340   11.5550 O.3         1 A02      -0.3840
     13 OAO         6.1124    8.1923   10.5362 O.3         1 A02      -0.3834
     14 OBV         8.3432    7.1449   12.9908 O.3         1 A02      -0.3181
     15 CCC         7.2933    5.2509   13.9772 C.2         1 A02       0.2080
     16 CCK         6.7228    6.0843   11.6724 C.3         1 A02       0.1295
     17 CCL         7.2032    7.3266   10.8870 C.3         1 A02       0.1408
     18 CCM         7.1242    6.4112   13.1259 C.3         1 A02       0.1788
     19 CCN         8.1982    8.0380   11.8603 C.3         1 A02       0.2035
     20 CBZ        13.4058    2.5928   12.8046 C.2         1 A02       0.1782
     21 OAI        14.6248    2.7258   12.7704 O.2         1 A02      -0.3969
     22 CBG        12.8251    1.6135   13.7080 C.3         1 A02       0.0374
     23 CAX        12.4971    2.1797   15.1165 C.3         1 A02      -0.0360
     24 CAU        11.3429    3.2279   15.1920 C.3         1 A02      -0.0492
     25 CAW        10.0130    2.7460   14.5488 C.3         1 A02      -0.0326
     26 CBD         8.7296    3.5256   14.9665 C.3         1 A02       0.0310
     27 NBR         8.4994    4.7236   14.2184 N.am        1 A02      -0.2847
     28 NBS        12.6096    3.3900   12.1027 N.am        1 A02      -0.2656
     29 CCI        13.0244    4.4801   11.2540 C.3         1 A02       0.1308
     30 CCB        13.9478    4.0954   10.1831 C.2         1 A02       0.2016
     31 OAK        13.8419    2.9983    9.6540 O.2         1 A02      -0.3945
     32 CBJ        11.7900    5.2391   10.6725 C.3         1 A02      -0.0122
     33 CAZ        10.7811    4.3901    9.8303 C.3         1 A02      -0.0440
     34 CAS        10.0410    5.2103    8.7374 C.3         1 A02      -0.0124
     35 CAR        10.5673    4.9023    7.3131 C.3         1 A02      -0.0354
     36 NAC         9.8854    5.7087    6.2954 N.4         1 A02       0.2185
     37 CCA        17.4026    9.6014    4.9830 C.2         1 A02       0.1782
     38 OAJ        16.4723    9.7112    4.1912 O.2         1 A02      -0.3969
     39 CBH        17.4995    8.4352    5.8504 C.3         1 A02       0.0374
     40 CAY        16.5099    7.2677    5.5519 C.3         1 A02      -0.0360
     41 CAT        16.6378    6.0568    6.5230 C.3         1 A02      -0.0492
     42 CAV        15.6367    6.1029    7.7194 C.3         1 A02      -0.0326
     43 CBC        15.7416    4.8653    8.6470 C.3         1 A02       0.0310
     44 NBQ        14.8268    4.9960    9.7421 N.am        1 A02      -0.2851
     45 NBT        18.3244   10.5476    5.0803 N.am        1 A02      -0.2656
     46 CCJ        18.3417   11.8060    4.3717 C.3         1 A02       0.1310
     47 CBK        19.8036   12.3449    4.2833 C.3         1 A02      -0.0092
     48 CBB        19.9160   13.6674    3.4722 C.3         1 A02      -0.0156
     49 CBF        21.3221   14.3288    3.5362 C.3         1 A02       0.0627
     50 NBP        21.2747   15.7164    3.3293 N.pl3       1 A02      -0.2723
     51 CBX        20.9486   16.3498    2.2642 C.cat       1 A02       0.2882
     52 NAB        20.6565   15.7989    1.1489 N.pl3       1 A02      -0.2849
     53 NAE        20.9093   17.6257    2.3305 N.pl3       1 A02      -0.2849
     54 CCD        17.4522   12.7520    5.0431 C.2         1 A02       0.2039
     55 OAM        17.5207   12.8451    6.2613 O.2         1 A02      -0.3944
     56 N          16.7126   13.5811    4.3175 N.am        1 A02      -0.2637
     57 CA         15.9660   14.7231    4.7809 C.3         1 A02       0.1307
     58 CB         16.9005   15.8489    5.3334 C.3         1 A02      -0.0092
     59 CG         16.1641   17.1685    5.7027 C.3         1 A02      -0.0156
     60 CD         17.0564   18.1608    6.4878 C.3         1 A02       0.0627
     61 NE         17.0708   17.8674    7.8552 N.pl3       1 A02      -0.2723
     62 CZ         17.5515   18.5933    8.7973 C.cat       1 A02       0.2882
     63 NH1        18.1005   19.7354    8.6314 N.pl3       1 A02      -0.2849
     64 NH2        17.4652   18.1599    9.9958 N.pl3       1 A02      -0.2849
     65 C          14.8845   14.3817    5.6951 C.2         1 A02       0.1992
     66 O          14.9778   13.4322    6.4671 O.2         1 A02      -0.3947
     67 NAF        13.7975   15.1238    5.7757 N.am        1 A02      -0.2990
     68 H1         12.3050    8.4987   14.8022 H           1 A02       0.0996
     69 H2         13.8764    9.3456    9.8455 H           1 A02       0.1820
     70 H3         14.8965    9.3187   11.1807 H           1 A02       0.1820
     71 H4          9.1318    8.6516    9.2353 H           1 A02       0.1349
     72 H5          5.1963    5.6588   10.5950 H           1 A02       0.2102
     73 H6          6.5226    8.9138   10.0212 H           1 A02       0.2101
     74 H7          7.2731    5.1995   11.3207 H           1 A02       0.0673
     75 H8          7.7001    6.9943    9.9664 H           1 A02       0.0678
     76 H9          6.3750    7.0864   13.5695 H           1 A02       0.0869
     77 H10         7.7505    8.9715   12.2239 H           1 A02       0.0998
     78 H11        13.5337    0.7884   13.8214 H           1 A02       0.0502
     79 H12        11.9251    1.1814   13.2675 H           1 A02       0.0502
     80 H13        13.4008    2.6255   15.5333 H           1 A02       0.0290
     81 H14        12.2390    1.3394   15.7637 H           1 A02       0.0290
     82 H15        11.6609    4.1619   14.7217 H           1 A02       0.0267
     83 H16        11.1688    3.4365   16.2509 H           1 A02       0.0267
     84 H17         9.8699    1.6961   14.8280 H           1 A02       0.0285
     85 H18        10.1075    2.7891   13.4603 H           1 A02       0.0285
     86 H19         8.7744    3.7500   16.0363 H           1 A02       0.0520
     87 H20         7.8898    2.8427   14.8021 H           1 A02       0.0520
     88 H21         9.2693    5.1648   13.8231 H           1 A02       0.1851
     89 H22        11.6508    3.2623   12.2015 H           1 A02       0.1883
     90 H23        13.5403    5.1974   11.9060 H           1 A02       0.0800
     91 H24        12.1488    6.0870   10.0767 H           1 A02       0.0312
     92 H25        11.2336    5.6655   11.5126 H           1 A02       0.0312
     93 H26        10.0373    3.9708   10.5215 H           1 A02       0.0269
     94 H27        11.2950    3.5380    9.3708 H           1 A02       0.0269
     95 H28        10.1376    6.2797    8.9444 H           1 A02       0.0317
     96 H29         8.9759    4.9594    8.7757 H           1 A02       0.0317
     97 H30        10.3906    3.8508    7.0813 H           1 A02       0.0813
     98 H31        11.6394    5.1014    7.2493 H           1 A02       0.0813
     99 H32        10.0721    5.3042    5.3720 H           1 A02       0.1994
    100 H33        10.2261    6.6746    6.3275 H           1 A02       0.1994
    101 H34         8.8737    5.7023    6.4597 H           1 A02       0.1994
    102 H35        17.3513    8.7716    6.8782 H           1 A02       0.0502
    103 H36        18.5122    8.0319    5.7712 H           1 A02       0.0502
    104 H37        16.7075    6.9166    4.5325 H           1 A02       0.0290
    105 H38        15.4809    7.6416    5.5707 H           1 A02       0.0290
    106 H39        17.6635    5.9929    6.9098 H           1 A02       0.0267
    107 H40        16.4457    5.1319    5.9599 H           1 A02       0.0267
    108 H41        14.6186    6.1558    7.3120 H           1 A02       0.0285
    109 H42        15.8216    7.0141    8.3015 H           1 A02       0.0285
    110 H43        16.7561    4.8150    9.0573 H           1 A02       0.0520
    111 H44        15.5639    3.9580    8.0580 H           1 A02       0.0520
    112 H45        14.8590    5.8433   10.2139 H           1 A02       0.1851
    113 H46        19.0478   10.3825    5.7123 H           1 A02       0.1883
    114 H47        18.0089   11.6119    3.3433 H           1 A02       0.0800
    115 H48        20.4307   11.5908    3.7962 H           1 A02       0.0313
    116 H49        20.1949   12.5047    5.2954 H           1 A02       0.0313
    117 H50        19.1931   14.3779    3.8735 H           1 A02       0.0301
    118 H51        19.6528   13.4773    2.4275 H           1 A02       0.0301
    119 H52        22.0051   13.8558    2.8213 H           1 A02       0.0689
    120 H53        21.7361   14.1789    4.5369 H           1 A02       0.0689
    121 H54        21.4863   16.2494    4.0736 H           1 A02       0.2642
    122 H55        20.4226   16.3278    0.4107 H           1 A02       0.2615
    123 H56        20.6756   14.8639    1.0594 H           1 A02       0.2615
    124 H57        21.0906   18.0529    3.1412 H           1 A02       0.2615
    125 H58        20.6744   18.1244    1.5776 H           1 A02       0.2615
    126 H59        16.7449   13.4568    3.3578 H           1 A02       0.1883
    127 H60        15.5127   15.1163    3.8667 H           1 A02       0.0800
    128 H61        17.6538   16.0987    4.5820 H           1 A02       0.0313
    129 H62        17.4349   15.4729    6.2086 H           1 A02       0.0313
    130 H63        15.2771   16.9325    6.3008 H           1 A02       0.0301
    131 H64        15.8411   17.6486    4.7706 H           1 A02       0.0301
    132 H65        16.6519   19.1681    6.3383 H           1 A02       0.0689
    133 H66        18.0804   18.1274    6.0920 H           1 A02       0.0689
    134 H67        16.6934   17.0512    8.1204 H           1 A02       0.2642
    135 H68        18.3964   20.2105    9.3798 H           1 A02       0.2615
    136 H69        18.1851   20.1039    7.7758 H           1 A02       0.2615
    137 H70        17.0711   17.3263   10.1713 H           1 A02       0.2615
    138 H71        17.7837   18.6913   10.6994 H           1 A02       0.2615
    139 H72        13.1102   14.9091    6.4276 H           1 A02       0.1815
    140 H73        13.6773   15.8815    5.1715 H           1 A02       0.1815
@<TRIPOS>BOND
     1     2     1  ar
     2     6     1  ar
     3     3     2  ar
     4     4     3  ar
     5     4     5  ar
     6    10     4   1
     7     5     6  ar
     8     8     5   1
     9     6     7   1
    10     9     8   2
    11    10     9   1
    12    19    10   1
    13    15    11   2
    14    16    12   1
    15    17    13   1
    16    18    14   1
    17    14    19   1
    18    15    18   1
    19    27    15  am
    20    16    17   1
    21    18    16   1
    22    17    19   1
    23    20    21   2
    24    20    22   1
    25    28    20  am
    26    22    23   1
    27    23    24   1
    28    24    25   1
    29    25    26   1
    30    26    27   1
    31    29    28   1
    32    30    29   1
    33    29    32   1
    34    30    31   2
    35    44    30  am
    36    32    33   1
    37    33    34   1
    38    34    35   1
    39    35    36   1
    40    37    38   2
    41    39    37   1
    42    37    45  am
    43    40    39   1
    44    41    40   1
    45    42    41   1
    46    43    42   1
    47    43    44   1
    48    45    46   1
    49    46    47   1
    50    46    54   1
    51    47    48   1
    52    48    49   1
    53    49    50   1
    54    50    51  ar
    55    51    52  ar
    56    51    53  ar
    57    54    55   2
    58    54    56  am
    59    56    57   1
    60    57    58   1
    61    57    65   1
    62    58    59   1
    63    59    60   1
    64    60    61   1
    65    61    62  ar
    66    62    63  ar
    67    62    64  ar
    68    65    66   2
    69    65    67  am
    70     2    68   1
    71     7    69   1
    72     7    70   1
    73     9    71   1
    74    12    72   1
    75    13    73   1
    76    16    74   1
    77    17    75   1
    78    18    76   1
    79    19    77   1
    80    22    78   1
    81    22    79   1
    82    23    80   1
    83    23    81   1
    84    24    82   1
    85    24    83   1
    86    25    84   1
    87    25    85   1
    88    26    86   1
    89    26    87   1
    90    27    88   1
    91    28    89   1
    92    29    90   1
    93    32    91   1
    94    32    92   1
    95    33    93   1
    96    33    94   1
    97    34    95   1
    98    34    96   1
    99    35    97   1
   100    35    98   1
   101    36    99   1
   102    36   100   1
   103    36   101   1
   104    39   102   1
   105    39   103   1
   106    40   104   1
   107    40   105   1
   108    41   106   1
   109    41   107   1
   110    42   108   1
   111    42   109   1
   112    43   110   1
   113    43   111   1
   114    44   112   1
   115    45   113   1
   116    46   114   1
   117    47   115   1
   118    47   116   1
   119    48   117   1
   120    48   118   1
   121    49   119   1
   122    49   120   1
   123    50   121   1
   124    52   122   1
   125    52   123   1
   126    53   124   1
   127    53   125   1
   128    56   126   1
   129    57   127   1
   130    58   128   1
   131    58   129   1
   132    59   130   1
   133    59   131   1
   134    60   132   1
   135    60   133   1
   136    61   134   1
   137    63   135   1
   138    63   136   1
   139    64   137   1
   140    64   138   1
   141    67   139   1
   142    67   140   1
@<TRIPOS>SUBSTRUCTURE
     1  A02      2

