@<TRIPOS>MOLECULE
3ag9_ligand_011
   140   142
SMALL
GAST_HUCK
****
This file was generated by PARSER (from files_GN.cpp)

@<TRIPOS>ATOM
      1 N1         14.5170    1.8626   13.5789 N.ar        1 A02      -0.2698
      2 C2         13.4572    2.2293   12.8060 C.ar        1 A02       0.0533
      3 N3         12.2923    2.6139   13.3859 N.ar        1 A02      -0.2714
      4 C4         12.1707    2.6332   14.7384 C.ar        1 A02       0.1613
      5 C5         13.2374    2.2422   15.5466 C.ar        1 A02       0.1045
      6 C6         14.4461    1.8542   14.9382 C.ar        1 A02       0.1298
      7 N6         15.5130    1.4974   15.6660 N.pl3       1 A02      -0.3152
      8 N7         12.8509    2.3043   16.8247 N.2         1 A02      -0.2958
      9 C8         11.5795    2.7446   16.8098 C.2         1 A02       0.1123
     10 N9         11.1552    2.9959   15.5464 N.pl3       1 A02      -0.1918
     11 OAL        10.4019    7.1059   13.3868 O.2         1 A02      -0.3941
     12 OAN         7.2462    4.9745   14.7862 O.3         1 A02      -0.3840
     13 OAO         8.7438    4.5766   17.0903 O.3         1 A02      -0.3834
     14 OBV         9.7385    3.7071   13.7371 O.3         1 A02      -0.3181
     15 CCC        10.4338    5.9181   13.0802 C.2         1 A02       0.2080
     16 CCK         8.5827    5.4798   14.7872 C.3         1 A02       0.1295
     17 CCL         9.4382    4.7961   15.8585 C.3         1 A02       0.1408
     18 CCM         9.3129    5.0604   13.4863 C.3         1 A02       0.1788
     19 CCN         9.8524    3.4786   15.1595 C.3         1 A02       0.2035
     20 CBZ        16.6578    2.5375    9.0073 C.2         1 A02       0.1782
     21 OAI        16.4819    1.6375    8.1901 O.2         1 A02      -0.3969
     22 CBG        15.5478    2.9963    9.8267 C.3         1 A02       0.0374
     23 CAX        14.9435    4.3440    9.3387 C.3         1 A02      -0.0360
     24 CAU        13.6009    4.7678   10.0024 C.3         1 A02      -0.0492
     25 CAW        13.7566    5.4091   11.4131 C.3         1 A02      -0.0326
     26 CBD        12.5351    6.2491   11.8711 C.3         1 A02       0.0310
     27 NBR        11.4050    5.4701   12.2958 N.am        1 A02      -0.2847
     28 NBS        17.8382    3.1498    9.1117 N.am        1 A02      -0.2656
     29 CCI        19.0438    2.9209    8.3671 C.3         1 A02       0.1308
     30 CCB        19.2351    4.0689    7.4856 C.2         1 A02       0.2016
     31 OAK        19.4689    3.8779    6.2956 O.2         1 A02      -0.3945
     32 CBJ        20.2315    2.6975    9.3606 C.3         1 A02      -0.0122
     33 CAZ        21.6606    2.8816    8.7616 C.3         1 A02      -0.0440
     34 CAS        22.3521    1.6074    8.1967 C.3         1 A02      -0.0124
     35 CAR        22.0773    0.2726    8.9360 C.3         1 A02      -0.0354
     36 NAC        22.3315    0.3403   10.3857 N.4         1 A02       0.2185
     37 CCA        19.8081   11.7055    5.0406 C.2         1 A02       0.1782
     38 OAJ        20.8347   12.3656    5.1701 O.2         1 A02      -0.3969
     39 CBH        19.9498   10.2860    4.7685 C.3         1 A02       0.0374
     40 CAY        20.1576    9.4418    6.0590 C.3         1 A02      -0.0360
     41 CAT        20.7055    8.0225    5.7415 C.3         1 A02      -0.0492
     42 CAV        20.6101    7.0060    6.9138 C.3         1 A02      -0.0326
     43 CBC        19.1633    6.5210    7.2143 C.3         1 A02       0.0310
     44 NBQ        19.1050    5.3038    7.9689 N.am        1 A02      -0.2851
     45 NBT        18.6102   12.2878    5.0659 N.am        1 A02      -0.2656
     46 CCJ        18.3532   13.6935    5.2491 C.3         1 A02       0.1310
     47 CBK        18.4313   14.0720    6.7652 C.3         1 A02      -0.0092
     48 CBB        18.5395   15.5973    7.0307 C.3         1 A02      -0.0156
     49 CBF        18.9994   15.9257    8.4758 C.3         1 A02       0.0627
     50 NBP        19.3408   17.2776    8.5756 N.pl3       1 A02      -0.2723
     51 CBX        18.8056   18.1994    9.2865 C.cat       1 A02       0.2882
     52 NAB        17.8054   18.0634   10.0709 N.pl3       1 A02      -0.2849
     53 NAE        19.3210   19.3635    9.2172 N.pl3       1 A02      -0.2849
     54 CCD        17.1071   14.0427    4.5535 C.2         1 A02       0.2039
     55 OAM        17.0915   13.8981    3.3368 O.2         1 A02      -0.3944
     56 N          16.0570   14.5699    5.1796 N.am        1 A02      -0.2637
     57 CA         14.8789   15.1551    4.5938 C.3         1 A02       0.1307
     58 CB         14.9430   16.6979    4.8378 C.3         1 A02      -0.0092
     59 CG         15.9280   17.4831    3.9021 C.3         1 A02      -0.0156
     60 CD         16.8302   18.5588    4.5806 C.3         1 A02       0.0627
     61 NE         16.2890   19.0716    5.7594 N.pl3       1 A02      -0.2723
     62 CZ         16.9162   19.7110    6.6794 C.cat       1 A02       0.2882
     63 NH1        18.1305   20.1039    6.6094 N.pl3       1 A02      -0.2849
     64 NH2        16.2585   19.9608    7.7476 N.pl3       1 A02      -0.2849
     65 C          13.6998   14.5690    5.2179 C.2         1 A02       0.1992
     66 O          12.8047   14.0984    4.5375 O.2         1 A02      -0.3947
     67 NAF        13.5343   14.5791    6.5249 N.am        1 A02      -0.2990
     68 H1         13.5320    2.2145   11.7932 H           1 A02       0.0996
     69 H2         15.4675    1.5237   16.6367 H           1 A02       0.1820
     70 H3         16.3403    1.2438   15.2234 H           1 A02       0.1820
     71 H4         11.0256    2.8997   17.6531 H           1 A02       0.1349
     72 H5          6.8366    5.3352   15.5960 H           1 A02       0.2102
     73 H6          8.5535    5.4772   17.4445 H           1 A02       0.2101
     74 H7          8.5467    6.5610   14.9320 H           1 A02       0.0673
     75 H8         10.3237    5.4119   16.0627 H           1 A02       0.0678
     76 H9          8.6049    5.0470   12.6502 H           1 A02       0.0869
     77 H10         9.1171    2.7056   15.4113 H           1 A02       0.0998
     78 H11        15.8954    3.0873   10.8603 H           1 A02       0.0502
     79 H12        14.7517    2.2470    9.8284 H           1 A02       0.0502
     80 H13        14.7741    4.2528    8.2627 H           1 A02       0.0290
     81 H14        15.6756    5.1408    9.4787 H           1 A02       0.0290
     82 H15        12.9371    3.8963   10.0630 H           1 A02       0.0267
     83 H16        13.1316    5.4960    9.3354 H           1 A02       0.0267
     84 H17        14.6253    6.0785   11.4002 H           1 A02       0.0285
     85 H18        13.9465    4.6147   12.1488 H           1 A02       0.0285
     86 H19        12.2339    6.9118   11.0541 H           1 A02       0.0520
     87 H20        12.8530    6.8675   12.7134 H           1 A02       0.0520
     88 H21        11.3618    4.5482   12.0010 H           1 A02       0.1851
     89 H22        17.8998    3.8495    9.7772 H           1 A02       0.1883
     90 H23        18.9501    2.0142    7.7702 H           1 A02       0.0800
     91 H24        20.1641    1.6839    9.7918 H           1 A02       0.0312
     92 H25        20.1320    3.4170   10.1860 H           1 A02       0.0312
     93 H26        22.2932    3.2834    9.5539 H           1 A02       0.0269
     94 H27        21.6285    3.6340    7.9633 H           1 A02       0.0269
     95 H28        23.4373    1.7838    8.2192 H           1 A02       0.0317
     96 H29        22.0636    1.4879    7.1449 H           1 A02       0.0317
     97 H30        22.7134   -0.5083    8.5099 H           1 A02       0.0813
     98 H31        21.0411   -0.0262    8.7882 H           1 A02       0.0813
     99 H32        22.3370   -0.6117   10.7715 H           1 A02       0.1994
    100 H33        21.5729    0.8736   10.8221 H           1 A02       0.1994
    101 H34        23.2304    0.8071   10.5807 H           1 A02       0.1994
    102 H35        20.8007   10.1456    4.0903 H           1 A02       0.0502
    103 H36        19.0635    9.9083    4.2492 H           1 A02       0.0502
    104 H37        19.1956    9.3607    6.5751 H           1 A02       0.0290
    105 H38        20.8643    9.9445    6.7276 H           1 A02       0.0290
    106 H39        21.7594    8.1208    5.4618 H           1 A02       0.0267
    107 H40        20.1793    7.6065    4.8801 H           1 A02       0.0267
    108 H41        21.0399    7.4448    7.8182 H           1 A02       0.0285
    109 H42        21.2255    6.1425    6.6569 H           1 A02       0.0285
    110 H43        18.6013    6.3883    6.2846 H           1 A02       0.0520
    111 H44        18.6557    7.2966    7.7957 H           1 A02       0.0520
    112 H45        18.8713    5.3945    8.9091 H           1 A02       0.1851
    113 H46        17.8430   11.7128    4.9011 H           1 A02       0.1883
    114 H47        19.1563   14.2387    4.7389 H           1 A02       0.0800
    115 H48        19.3159   13.6075    7.2082 H           1 A02       0.0313
    116 H49        17.5684   13.6673    7.2981 H           1 A02       0.0313
    117 H50        17.5740   16.0783    6.8593 H           1 A02       0.0301
    118 H51        19.2520   16.0292    6.3244 H           1 A02       0.0301
    119 H52        19.8993   15.3519    8.7102 H           1 A02       0.0689
    120 H53        18.2224   15.6218    9.1776 H           1 A02       0.0689
    121 H54        20.0772   17.5455    8.0640 H           1 A02       0.2642
    122 H55        17.5114   18.8080   10.5533 H           1 A02       0.2615
    123 H56        17.3697   17.2436   10.1696 H           1 A02       0.2615
    124 H57        20.0649   19.5237    8.6744 H           1 A02       0.2615
    125 H58        18.9747   20.0498    9.7452 H           1 A02       0.2615
    126 H59        16.1235   14.6471    6.1492 H           1 A02       0.1883
    127 H60        14.8315   14.9790    3.5126 H           1 A02       0.0800
    128 H61        15.2030   16.8646    5.8918 H           1 A02       0.0313
    129 H62        13.9466   17.1326    4.6934 H           1 A02       0.0313
    130 H63        15.3345   17.9677    3.1124 H           1 A02       0.0301
    131 H64        16.5957   16.7732    3.3947 H           1 A02       0.0301
    132 H65        17.0084   19.3674    3.8593 H           1 A02       0.0689
    133 H66        17.7984   18.0919    4.7995 H           1 A02       0.0689
    134 H67        15.3921   18.8740    5.9264 H           1 A02       0.2642
    135 H68        18.5128   20.5643    7.3330 H           1 A02       0.2615
    136 H69        18.6386   19.9394    5.8361 H           1 A02       0.2615
    137 H70        15.3770   19.6638    7.8274 H           1 A02       0.2615
    138 H71        16.6660   20.3846    8.4692 H           1 A02       0.2615
    139 H72        12.7205   14.2188    6.9167 H           1 A02       0.1815
    140 H73        14.2344   14.9281    7.1011 H           1 A02       0.1815
@<TRIPOS>BOND
     1     2     1  ar
     2     6     1  ar
     3     3     2  ar
     4     4     3  ar
     5     4     5  ar
     6    10     4   1
     7     5     6  ar
     8     8     5   1
     9     6     7   1
    10     9     8   2
    11    10     9   1
    12    19    10   1
    13    15    11   2
    14    16    12   1
    15    17    13   1
    16    18    14   1
    17    14    19   1
    18    15    18   1
    19    27    15  am
    20    16    17   1
    21    18    16   1
    22    17    19   1
    23    20    21   2
    24    20    22   1
    25    28    20  am
    26    22    23   1
    27    23    24   1
    28    24    25   1
    29    25    26   1
    30    26    27   1
    31    29    28   1
    32    30    29   1
    33    29    32   1
    34    30    31   2
    35    44    30  am
    36    32    33   1
    37    33    34   1
    38    34    35   1
    39    35    36   1
    40    37    38   2
    41    39    37   1
    42    37    45  am
    43    40    39   1
    44    41    40   1
    45    42    41   1
    46    43    42   1
    47    43    44   1
    48    45    46   1
    49    46    47   1
    50    46    54   1
    51    47    48   1
    52    48    49   1
    53    49    50   1
    54    50    51  ar
    55    51    52  ar
    56    51    53  ar
    57    54    55   2
    58    54    56  am
    59    56    57   1
    60    57    58   1
    61    57    65   1
    62    58    59   1
    63    59    60   1
    64    60    61   1
    65    61    62  ar
    66    62    63  ar
    67    62    64  ar
    68    65    66   2
    69    65    67  am
    70     2    68   1
    71     7    69   1
    72     7    70   1
    73     9    71   1
    74    12    72   1
    75    13    73   1
    76    16    74   1
    77    17    75   1
    78    18    76   1
    79    19    77   1
    80    22    78   1
    81    22    79   1
    82    23    80   1
    83    23    81   1
    84    24    82   1
    85    24    83   1
    86    25    84   1
    87    25    85   1
    88    26    86   1
    89    26    87   1
    90    27    88   1
    91    28    89   1
    92    29    90   1
    93    32    91   1
    94    32    92   1
    95    33    93   1
    96    33    94   1
    97    34    95   1
    98    34    96   1
    99    35    97   1
   100    35    98   1
   101    36    99   1
   102    36   100   1
   103    36   101   1
   104    39   102   1
   105    39   103   1
   106    40   104   1
   107    40   105   1
   108    41   106   1
   109    41   107   1
   110    42   108   1
   111    42   109   1
   112    43   110   1
   113    43   111   1
   114    44   112   1
   115    45   113   1
   116    46   114   1
   117    47   115   1
   118    47   116   1
   119    48   117   1
   120    48   118   1
   121    49   119   1
   122    49   120   1
   123    50   121   1
   124    52   122   1
   125    52   123   1
   126    53   124   1
   127    53   125   1
   128    56   126   1
   129    57   127   1
   130    58   128   1
   131    58   129   1
   132    59   130   1
   133    59   131   1
   134    60   132   1
   135    60   133   1
   136    61   134   1
   137    63   135   1
   138    63   136   1
   139    64   137   1
   140    64   138   1
   141    67   139   1
   142    67   140   1
@<TRIPOS>SUBSTRUCTURE
     1  A02      2

