@<TRIPOS>MOLECULE
3ag9_ligand_063
   140   142
SMALL
GAST_HUCK
****
This file was generated by PARSER (from files_GN.cpp)

@<TRIPOS>ATOM
      1 N1         -3.5583    5.7692   13.9304 N.ar        1 A02      -0.2698
      2 C2         -2.6040    5.6364   14.8947 C.ar        1 A02       0.0533
      3 N3         -1.4060    6.2690   14.7606 N.ar        1 A02      -0.2714
      4 C4         -1.1646    7.0355   13.6654 C.ar        1 A02       0.1613
      5 C5         -2.1285    7.1836   12.6720 C.ar        1 A02       0.1045
      6 C6         -3.3592    6.5241   12.8178 C.ar        1 A02       0.1298
      7 N6         -4.3268    6.6234   11.8903 N.pl3       1 A02      -0.3152
      8 N7         -1.6342    7.9748   11.7105 N.2         1 A02      -0.2958
      9 C8         -0.3886    8.3046   12.0989 C.2         1 A02       0.1123
     10 N9         -0.0797    7.7353   13.2881 N.pl3       1 A02      -0.1918
     11 OAL         2.2856   11.4539   12.8340 O.2         1 A02      -0.3941
     12 OAN         4.6217    7.8890   12.8050 O.3         1 A02      -0.3840
     13 OAO         3.0011    6.2363   14.2314 O.3         1 A02      -0.3834
     14 OBV         1.5091    9.2512   14.0518 O.3         1 A02      -0.3181
     15 CCC         3.1993   10.6984   13.1506 C.2         1 A02       0.2080
     16 CCK         3.2337    8.2237   12.7922 C.3         1 A02       0.1295
     17 CCL         2.3290    7.0940   13.3063 C.3         1 A02       0.1408
     18 CCM         2.9021    9.4019   13.7374 C.3         1 A02       0.1788
     19 CCN         1.1660    7.8580   13.9919 C.3         1 A02       0.2035
     20 CBZ         9.3033    8.5673    8.9962 C.2         1 A02       0.1782
     21 OAI         9.0945    7.6299    8.2341 O.2         1 A02      -0.3969
     22 CBG         8.3669    8.8339   10.0742 C.3         1 A02       0.0374
     23 CAX         7.5455   10.1338    9.8468 C.3         1 A02      -0.0360
     24 CAU         6.8248   10.6007   11.1386 C.3         1 A02      -0.0492
     25 CAW         5.7343   11.6801   10.8880 C.3         1 A02      -0.0326
     26 CBD         4.9716   12.1255   12.1665 C.3         1 A02       0.0310
     27 NBR         4.4635   11.0003   12.8885 N.am        1 A02      -0.2847
     28 NBS        10.3809    9.3310    8.8768 N.am        1 A02      -0.2656
     29 CCI        11.4476    9.2297    7.9178 C.3         1 A02       0.1308
     30 CCB        11.4710   10.4449    7.1084 C.2         1 A02       0.2016
     31 OAK        11.5645   10.3456    5.8881 O.2         1 A02      -0.3945
     32 CBJ        12.7844    8.9878    8.6829 C.3         1 A02      -0.0122
     33 CAZ        14.0382    8.9382    7.7633 C.3         1 A02      -0.0440
     34 CAS        15.3940    9.0003    8.5159 C.3         1 A02      -0.0124
     35 CAR        15.7009    7.7683    9.3993 C.3         1 A02      -0.0354
     36 NAC        17.0730    7.8402    9.9158 N.4         1 A02       0.2185
     37 CCA        16.1062   15.9967    4.4056 C.2         1 A02       0.1782
     38 OAJ        15.7808   16.6269    3.4083 O.2         1 A02      -0.3969
     39 CBH        15.1986   14.9603    4.8739 C.3         1 A02       0.0374
     40 CAY        13.9398   15.5595    5.5627 C.3         1 A02      -0.0360
     41 CAT        12.6996   14.6260    5.6422 C.3         1 A02      -0.0492
     42 CAV        12.7521   13.5032    6.7190 C.3         1 A02      -0.0326
     43 CBC        11.3474   12.9076    7.0224 C.3         1 A02       0.0310
     44 NBQ        11.3906   11.6397    7.6867 N.am        1 A02      -0.2851
     45 NBT        17.2826   16.2057    4.9914 N.am        1 A02      -0.2656
     46 CCJ        18.3251   17.1172    4.5711 C.3         1 A02       0.1310
     47 CBK        17.9560   18.6268    4.8170 C.3         1 A02      -0.0092
     48 CBB        18.2252   19.1674    6.2547 C.3         1 A02      -0.0156
     49 CBF        17.0044   19.1971    7.2229 C.3         1 A02       0.0627
     50 NBP        17.3964   19.0504    8.5582 N.pl3       1 A02      -0.2723
     51 CBX        17.8021   17.9654    9.1210 C.cat       1 A02       0.2882
     52 NAB        17.9048   16.8287    8.5300 N.pl3       1 A02      -0.2849
     53 NAE        18.1441   18.0139   10.3511 N.pl3       1 A02      -0.2849
     54 CCD        18.8334   16.8632    3.2157 C.2         1 A02       0.2039
     55 OAM        18.2232   16.1184    2.4577 O.2         1 A02      -0.3944
     56 N          20.0256   17.3595    2.8821 N.am        1 A02      -0.2637
     57 CA         20.8170   17.2192    1.6794 C.3         1 A02       0.1307
     58 CB         21.4554   18.6040    1.3127 C.3         1 A02      -0.0092
     59 CG         20.5110   19.8437    1.1811 C.3         1 A02      -0.0156
     60 CD         20.0740   20.2322   -0.2640 C.3         1 A02       0.0627
     61 NE         19.5883   21.5477   -0.3019 N.pl3       1 A02      -0.2723
     62 CZ         19.3939   22.2787   -1.3420 C.cat       1 A02       0.2882
     63 NH1        19.6107   21.9144   -2.5474 N.pl3       1 A02      -0.2849
     64 NH2        18.9545   23.4666   -1.1558 N.pl3       1 A02      -0.2849
     65 C          20.2000   16.5467    0.5305 C.2         1 A02       0.1992
     66 O          19.3120   17.0874   -0.1237 O.2         1 A02      -0.3947
     67 NAF        20.5095   15.2963    0.2249 N.am        1 A02      -0.2990
     68 H1         -2.7871    5.0615   15.7155 H           1 A02       0.0996
     69 H2         -4.1864    7.1598   11.0939 H           1 A02       0.1820
     70 H3         -5.1678    6.1552   12.0161 H           1 A02       0.1820
     71 H4          0.2333    8.9050   11.5550 H           1 A02       0.1349
     72 H5          4.7209    7.1948   12.1180 H           1 A02       0.2102
     73 H6          3.7685    5.8749   13.7387 H           1 A02       0.2101
     74 H7          2.9441    8.4745   11.7665 H           1 A02       0.0673
     75 H8          1.9834    6.4745   12.4731 H           1 A02       0.0678
     76 H9          3.4658    9.2993   14.6757 H           1 A02       0.0869
     77 H10         1.0547    7.5066   15.0232 H           1 A02       0.0998
     78 H11         8.9250    8.9081   11.0109 H           1 A02       0.0502
     79 H12         7.6684    7.9991   10.1807 H           1 A02       0.0502
     80 H13         6.8043    9.9503    9.0626 H           1 A02       0.0290
     81 H14         8.2028   10.9402    9.5127 H           1 A02       0.0290
     82 H15         7.5667   11.0020   11.8340 H           1 A02       0.0267
     83 H16         6.3506    9.7333   11.6062 H           1 A02       0.0267
     84 H17         5.0045   11.2869   10.1731 H           1 A02       0.0285
     85 H18         6.1987   12.5622   10.4368 H           1 A02       0.0285
     86 H19         4.1794   12.8207   11.8742 H           1 A02       0.0520
     87 H20         5.6541   12.6656   12.8255 H           1 A02       0.0520
     88 H21         5.1232   10.3500   13.1823 H           1 A02       0.1851
     89 H22        10.4691   10.0427    9.5263 H           1 A02       0.1883
     90 H23        11.2892    8.3613    7.2643 H           1 A02       0.0800
     91 H24        12.7051    8.0324    9.2082 H           1 A02       0.0312
     92 H25        12.9183    9.7681    9.4387 H           1 A02       0.0312
     93 H26        14.0042    9.7936    7.0838 H           1 A02       0.0269
     94 H27        14.0033    8.0302    7.1540 H           1 A02       0.0269
     95 H28        15.4257    9.9033    9.1311 H           1 A02       0.0317
     96 H29        16.1843    9.0835    7.7666 H           1 A02       0.0317
     97 H30        15.6027    6.8506    8.8169 H           1 A02       0.0813
     98 H31        15.0190    7.7217   10.2487 H           1 A02       0.0813
     99 H32        17.2696    7.0073   10.4736 H           1 A02       0.1994
    100 H33        17.1758    8.6699   10.5051 H           1 A02       0.1994
    101 H34        17.7373    7.8828    9.1385 H           1 A02       0.1994
    102 H35        15.6936   14.2906    5.5822 H           1 A02       0.0502
    103 H36        14.8969   14.3586    4.0139 H           1 A02       0.0502
    104 H37        13.6195   16.4549    5.0178 H           1 A02       0.0290
    105 H38        14.2137   15.8773    6.5726 H           1 A02       0.0290
    106 H39        12.5446   14.1670    4.6622 H           1 A02       0.0267
    107 H40        11.8322   15.2625    5.8384 H           1 A02       0.0267
    108 H41        13.1652   13.9026    7.6506 H           1 A02       0.0285
    109 H42        13.4170   12.7096    6.3660 H           1 A02       0.0285
    110 H43        10.7605   12.8391    6.1013 H           1 A02       0.0520
    111 H44        10.8204   13.5964    7.6865 H           1 A02       0.0520
    112 H45        11.2496   11.6468    8.6502 H           1 A02       0.1851
    113 H46        17.4703   15.6707    5.7813 H           1 A02       0.1883
    114 H47        19.1659   16.8771    5.2284 H           1 A02       0.0800
    115 H48        16.9144   18.8176    4.5451 H           1 A02       0.0313
    116 H49        18.5578   19.2518    4.1509 H           1 A02       0.0313
    117 H50        18.5962   20.1956    6.1657 H           1 A02       0.0301
    118 H51        19.0434   18.5839    6.6858 H           1 A02       0.0301
    119 H52        16.2606   18.4429    6.9600 H           1 A02       0.0689
    120 H53        16.5104   20.1706    7.1311 H           1 A02       0.0689
    121 H54        17.3539   19.8096    9.1053 H           1 A02       0.2642
    122 H55        18.2186   16.0903    9.0068 H           1 A02       0.2615
    123 H56        17.6804   16.7432    7.6300 H           1 A02       0.2615
    124 H57        18.1059   18.8250   10.8124 H           1 A02       0.2615
    125 H58        18.4540   17.2447   10.7804 H           1 A02       0.2615
    126 H59        20.4640   17.8662    3.5857 H           1 A02       0.1883
    127 H60        21.6590   16.5935    2.0080 H           1 A02       0.0800
    128 H61        22.0581   18.4945    0.4068 H           1 A02       0.0313
    129 H62        22.1635   18.8310    2.1136 H           1 A02       0.0313
    130 H63        21.0460   20.7019    1.6021 H           1 A02       0.0301
    131 H64        19.6177   19.6929    1.7923 H           1 A02       0.0301
    132 H65        19.2950   19.5430   -0.6100 H           1 A02       0.0689
    133 H66        20.9397   20.1561   -0.9347 H           1 A02       0.0689
    134 H67        19.3784   21.9471    0.5166 H           1 A02       0.2642
    135 H68        19.4649   22.5122   -3.2525 H           1 A02       0.2615
    136 H69        19.9251   21.0567   -2.7312 H           1 A02       0.2615
    137 H70        18.7760   23.7659   -0.2894 H           1 A02       0.2615
    138 H71        18.8323   24.0497   -1.8769 H           1 A02       0.2615
    139 H72        20.0753   14.8812   -0.5408 H           1 A02       0.1815
    140 H73        21.1523   14.7850    0.7667 H           1 A02       0.1815
@<TRIPOS>BOND
     1     2     1  ar
     2     6     1  ar
     3     3     2  ar
     4     4     3  ar
     5     4     5  ar
     6    10     4   1
     7     5     6  ar
     8     8     5   1
     9     6     7   1
    10     9     8   2
    11    10     9   1
    12    19    10   1
    13    15    11   2
    14    16    12   1
    15    17    13   1
    16    18    14   1
    17    14    19   1
    18    15    18   1
    19    27    15  am
    20    16    17   1
    21    18    16   1
    22    17    19   1
    23    20    21   2
    24    20    22   1
    25    28    20  am
    26    22    23   1
    27    23    24   1
    28    24    25   1
    29    25    26   1
    30    26    27   1
    31    29    28   1
    32    30    29   1
    33    29    32   1
    34    30    31   2
    35    44    30  am
    36    32    33   1
    37    33    34   1
    38    34    35   1
    39    35    36   1
    40    37    38   2
    41    39    37   1
    42    37    45  am
    43    40    39   1
    44    41    40   1
    45    42    41   1
    46    43    42   1
    47    43    44   1
    48    45    46   1
    49    46    47   1
    50    46    54   1
    51    47    48   1
    52    48    49   1
    53    49    50   1
    54    50    51  ar
    55    51    52  ar
    56    51    53  ar
    57    54    55   2
    58    54    56  am
    59    56    57   1
    60    57    58   1
    61    57    65   1
    62    58    59   1
    63    59    60   1
    64    60    61   1
    65    61    62  ar
    66    62    63  ar
    67    62    64  ar
    68    65    66   2
    69    65    67  am
    70     2    68   1
    71     7    69   1
    72     7    70   1
    73     9    71   1
    74    12    72   1
    75    13    73   1
    76    16    74   1
    77    17    75   1
    78    18    76   1
    79    19    77   1
    80    22    78   1
    81    22    79   1
    82    23    80   1
    83    23    81   1
    84    24    82   1
    85    24    83   1
    86    25    84   1
    87    25    85   1
    88    26    86   1
    89    26    87   1
    90    27    88   1
    91    28    89   1
    92    29    90   1
    93    32    91   1
    94    32    92   1
    95    33    93   1
    96    33    94   1
    97    34    95   1
    98    34    96   1
    99    35    97   1
   100    35    98   1
   101    36    99   1
   102    36   100   1
   103    36   101   1
   104    39   102   1
   105    39   103   1
   106    40   104   1
   107    40   105   1
   108    41   106   1
   109    41   107   1
   110    42   108   1
   111    42   109   1
   112    43   110   1
   113    43   111   1
   114    44   112   1
   115    45   113   1
   116    46   114   1
   117    47   115   1
   118    47   116   1
   119    48   117   1
   120    48   118   1
   121    49   119   1
   122    49   120   1
   123    50   121   1
   124    52   122   1
   125    52   123   1
   126    53   124   1
   127    53   125   1
   128    56   126   1
   129    57   127   1
   130    58   128   1
   131    58   129   1
   132    59   130   1
   133    59   131   1
   134    60   132   1
   135    60   133   1
   136    61   134   1
   137    63   135   1
   138    63   136   1
   139    64   137   1
   140    64   138   1
   141    67   139   1
   142    67   140   1
@<TRIPOS>SUBSTRUCTURE
     1  A02      2

