@<TRIPOS>MOLECULE
3ag9_ligand_009
   140   142
SMALL
GAST_HUCK
****
This file was generated by PARSER (from files_GN.cpp)

@<TRIPOS>ATOM
      1 N1          6.3474    8.7859   12.3539 N.ar        1 A02      -0.2698
      2 C2          7.0239    8.9604   13.5262 C.ar        1 A02       0.0533
      3 N3          7.6129    7.8990   14.1401 N.ar        1 A02      -0.2714
      4 C4          7.5273    6.6624   13.5850 C.ar        1 A02       0.1613
      5 C5          6.8533    6.4686   12.3812 C.ar        1 A02       0.1045
      6 C6          6.2404    7.5668   11.7563 C.ar        1 A02       0.1298
      7 N6          5.5813    7.4276   10.5950 N.pl3       1 A02      -0.3152
      8 N7          6.9672    5.1821   12.0314 N.2         1 A02      -0.2958
      9 C8          7.6932    4.5916   12.9968 C.2         1 A02       0.1123
     10 N9          8.0386    5.4765   13.9621 N.pl3       1 A02      -0.1918
     11 OAL        10.6568    2.0675   14.3944 O.2         1 A02      -0.3941
     12 OAN        10.0182    4.4257   17.8835 O.3         1 A02      -0.3840
     13 OAO         7.4613    4.5194   16.9762 O.3         1 A02      -0.3834
     14 OBV        10.1797    4.8666   14.6108 O.3         1 A02      -0.3181
     15 CCC        11.4054    2.9262   14.8479 C.2         1 A02       0.2080
     16 CCK         9.7860    3.6814   16.6822 C.3         1 A02       0.1295
     17 CCL         8.4505    4.0970   16.0398 C.3         1 A02       0.1408
     18 CCM        10.8326    4.0426   15.5888 C.3         1 A02       0.1788
     19 CCN         8.8879    5.2359   15.0953 C.3         1 A02       0.2035
     20 CBZ        14.6986    7.1693   11.1616 C.2         1 A02       0.1782
     21 OAI        13.6766    7.8188   10.9723 O.2         1 A02      -0.3969
     22 CBG        14.9393    6.6520   12.4969 C.3         1 A02       0.0374
     23 CAX        14.8469    5.1000   12.5918 C.3         1 A02      -0.0360
     24 CAU        13.4321    4.5526   12.2508 C.3         1 A02      -0.0492
     25 CAW        13.3348    3.0033   12.1172 C.3         1 A02      -0.0326
     26 CBD        13.3082    2.2139   13.4557 C.3         1 A02       0.0310
     27 NBR        12.6866    2.9661   14.5009 N.am        1 A02      -0.2847
     28 NBS        15.5523    6.8745   10.1839 N.am        1 A02      -0.2656
     29 CCI        15.4923    7.2305    8.7856 C.3         1 A02       0.1308
     30 CCB        14.2282    6.9364    8.1049 C.2         1 A02       0.2016
     31 OAK        13.3253    6.3643    8.7091 O.2         1 A02      -0.3945
     32 CBJ        16.1244    8.6427    8.5300 C.3         1 A02      -0.0122
     33 CAZ        15.3787    9.9318    8.9953 C.3         1 A02      -0.0440
     34 CAS        14.2104   10.4122    8.0749 C.3         1 A02      -0.0124
     35 CAR        12.9820   11.0145    8.8195 C.3         1 A02      -0.0354
     36 NAC        11.7668   10.2211    8.5957 N.4         1 A02       0.2185
     37 CCA        16.1380    4.5072    4.0974 C.2         1 A02       0.1782
     38 OAJ        16.4929    4.0210    3.0305 O.2         1 A02      -0.3969
     39 CBH        16.0929    5.9573    4.2112 C.3         1 A02       0.0374
     40 CAY        15.0911    6.6598    3.2557 C.3         1 A02      -0.0360
     41 CAT        13.5763    6.4773    3.5699 C.3         1 A02      -0.0492
     42 CAV        12.9474    7.4751    4.5943 C.3         1 A02      -0.0326
     43 CBC        12.8664    7.0117    6.0746 C.3         1 A02       0.0310
     44 NBQ        14.0745    7.2254    6.8142 N.am        1 A02      -0.2851
     45 NBT        15.9074    3.7454    5.1597 N.am        1 A02      -0.2656
     46 CCJ        16.1945    2.3427    5.3151 C.3         1 A02       0.1310
     47 CBK        14.8993    1.5353    5.6591 C.3         1 A02      -0.0092
     48 CBB        13.8880    2.2387    6.6188 C.3         1 A02      -0.0156
     49 CBF        13.1432    1.2791    7.5951 C.3         1 A02       0.0627
     50 NBP        11.8889    1.7299    8.0312 N.pl3       1 A02      -0.2723
     51 CBX        11.5957    2.8115    8.6500 C.cat       1 A02       0.2882
     52 NAB        12.4376    3.7135    8.9861 N.pl3       1 A02      -0.2849
     53 NAE        10.3786    3.0259    8.9482 N.pl3       1 A02      -0.2849
     54 CCD        17.2932    2.2207    6.2760 C.2         1 A02       0.2039
     55 OAM        18.3775    2.7026    5.9698 O.2         1 A02      -0.3944
     56 N          17.1543    1.5851    7.4367 N.am        1 A02      -0.2637
     57 CA         18.1454    1.3342    8.4444 C.3         1 A02       0.1307
     58 CB         17.7444    0.0098    9.1714 C.3         1 A02      -0.0092
     59 CG         18.7245   -0.5149   10.2602 C.3         1 A02      -0.0156
     60 CD         19.9687   -1.2872    9.7393 C.3         1 A02       0.0627
     61 NE         21.0511   -0.4542    9.4376 N.pl3       1 A02      -0.2723
     62 CZ         21.9425   -0.0083   10.2446 C.cat       1 A02       0.2882
     63 NH1        21.9835   -0.2391   11.5001 N.pl3       1 A02      -0.2849
     64 NH2        22.8646    0.7292    9.7621 N.pl3       1 A02      -0.2849
     65 C          18.2468    2.5112    9.2947 C.2         1 A02       0.1992
     66 O          17.4801    2.6982   10.2290 O.2         1 A02      -0.3947
     67 NAF        19.0478    3.5012    8.9655 N.am        1 A02      -0.2990
     68 H1          7.0942    9.8899   13.9416 H           1 A02       0.0996
     69 H2          5.5295    6.5587   10.1621 H           1 A02       0.1820
     70 H3          5.1688    8.1981   10.1755 H           1 A02       0.1820
     71 H4          7.9613    3.6063   12.9692 H           1 A02       0.1349
     72 H5         10.8526    4.0698   18.2574 H           1 A02       0.2102
     73 H6          6.6846    4.7696   16.4318 H           1 A02       0.2101
     74 H7          9.7917    2.6159   16.9321 H           1 A02       0.0673
     75 H8          8.0516    3.2493   15.4784 H           1 A02       0.0678
     76 H9         11.6316    4.6436   16.0410 H           1 A02       0.0869
     77 H10         9.0063    6.1522   15.6855 H           1 A02       0.0998
     78 H11        14.2296    7.0815   13.2157 H           1 A02       0.0502
     79 H12        15.9377    6.9637   12.8145 H           1 A02       0.0502
     80 H13        15.1032    4.8062   13.6146 H           1 A02       0.0290
     81 H14        15.5797    4.6370   11.9219 H           1 A02       0.0290
     82 H15        13.1156    4.9841   11.3021 H           1 A02       0.0267
     83 H16        12.7166    4.8884   13.0064 H           1 A02       0.0267
     84 H17        14.1666    2.6367   11.5105 H           1 A02       0.0285
     85 H18        12.4143    2.7730   11.5713 H           1 A02       0.0285
     86 H19        14.3335    2.0020   13.7713 H           1 A02       0.0520
     87 H20        12.7998    1.2522   13.3228 H           1 A02       0.0520
     88 H21        13.2085    3.6994   14.8599 H           1 A02       0.1851
     89 H22        16.3218    6.3391   10.4541 H           1 A02       0.1883
     90 H23        16.1993    6.5282    8.3342 H           1 A02       0.0800
     91 H24        16.3517    8.7411    7.4632 H           1 A02       0.0312
     92 H25        17.0927    8.6378    9.0433 H           1 A02       0.0312
     93 H26        16.1159   10.7443    9.0277 H           1 A02       0.0269
     94 H27        15.0549    9.7891   10.0228 H           1 A02       0.0269
     95 H28        13.8747    9.5930    7.4419 H           1 A02       0.0317
     96 H29        14.6078   11.1685    7.3873 H           1 A02       0.0317
     97 H30        12.7875   12.0299    8.4626 H           1 A02       0.0813
     98 H31        13.1381   11.0686    9.9008 H           1 A02       0.0813
     99 H32        11.0095   10.6229    9.1511 H           1 A02       0.1994
    100 H33        11.9292    9.2543    8.8894 H           1 A02       0.1994
    101 H34        11.5193   10.2424    7.6040 H           1 A02       0.1994
    102 H35        17.0941    6.3341    3.9778 H           1 A02       0.0502
    103 H36        15.8790    6.2629    5.2350 H           1 A02       0.0502
    104 H37        15.2759    6.2933    2.2395 H           1 A02       0.0290
    105 H38        15.3215    7.7301    3.2385 H           1 A02       0.0290
    106 H39        13.3762    5.4438    3.8647 H           1 A02       0.0267
    107 H40        13.0508    6.6291    2.6208 H           1 A02       0.0267
    108 H41        11.9166    7.6557    4.2701 H           1 A02       0.0285
    109 H42        13.4532    8.4436    4.5442 H           1 A02       0.0285
    110 H43        12.5849    5.9548    6.1229 H           1 A02       0.0520
    111 H44        12.0709    7.5932    6.5574 H           1 A02       0.0520
    112 H45        14.8079    7.6762    6.3615 H           1 A02       0.1851
    113 H46        15.5888    4.2028    5.9546 H           1 A02       0.1883
    114 H47        16.5761    1.9172    4.3768 H           1 A02       0.0800
    115 H48        15.2046    0.5647    6.0617 H           1 A02       0.0313
    116 H49        14.3850    1.3143    4.7242 H           1 A02       0.0313
    117 H50        13.1570    2.7790    6.0090 H           1 A02       0.0301
    118 H51        14.4173    2.9838    7.2177 H           1 A02       0.0301
    119 H52        13.7789    1.0804    8.4634 H           1 A02       0.0689
    120 H53        12.9661    0.3257    7.0959 H           1 A02       0.0689
    121 H54        11.1693    1.1625    7.8426 H           1 A02       0.2642
    122 H55        12.1356    4.4863    9.4186 H           1 A02       0.2615
    123 H56        13.3484    3.6110    8.8076 H           1 A02       0.2615
    124 H57         9.7189    2.3973    8.7285 H           1 A02       0.2615
    125 H58        10.1299    3.8126    9.3960 H           1 A02       0.2615
    126 H59        16.2769    1.2201    7.6241 H           1 A02       0.1883
    127 H60        19.1153    1.1560    7.9753 H           1 A02       0.0800
    128 H61        17.6179   -0.7806    8.4258 H           1 A02       0.0313
    129 H62        16.7606    0.1508    9.6319 H           1 A02       0.0313
    130 H63        18.1602   -1.2051   10.8949 H           1 A02       0.0301
    131 H64        19.0411    0.3139   10.8962 H           1 A02       0.0301
    132 H65        19.7043   -1.8370    8.8349 H           1 A02       0.0689
    133 H66        20.2641   -2.0422   10.4746 H           1 A02       0.0689
    134 H67        21.1488   -0.2156    8.5376 H           1 A02       0.2642
    135 H68        22.6791    0.1161   12.0192 H           1 A02       0.2615
    136 H69        21.3054   -0.7296   11.9172 H           1 A02       0.2615
    137 H70        22.8809    0.9293    8.8466 H           1 A02       0.2615
    138 H71        23.5249    1.0812   10.3278 H           1 A02       0.2615
    139 H72        19.0391    4.3186    9.4857 H           1 A02       0.1815
    140 H73        19.6360    3.4195    8.1974 H           1 A02       0.1815
@<TRIPOS>BOND
     1     2     1  ar
     2     6     1  ar
     3     3     2  ar
     4     4     3  ar
     5     4     5  ar
     6    10     4   1
     7     5     6  ar
     8     8     5   1
     9     6     7   1
    10     9     8   2
    11    10     9   1
    12    19    10   1
    13    15    11   2
    14    16    12   1
    15    17    13   1
    16    18    14   1
    17    14    19   1
    18    15    18   1
    19    27    15  am
    20    16    17   1
    21    18    16   1
    22    17    19   1
    23    20    21   2
    24    20    22   1
    25    28    20  am
    26    22    23   1
    27    23    24   1
    28    24    25   1
    29    25    26   1
    30    26    27   1
    31    29    28   1
    32    30    29   1
    33    29    32   1
    34    30    31   2
    35    44    30  am
    36    32    33   1
    37    33    34   1
    38    34    35   1
    39    35    36   1
    40    37    38   2
    41    39    37   1
    42    37    45  am
    43    40    39   1
    44    41    40   1
    45    42    41   1
    46    43    42   1
    47    43    44   1
    48    45    46   1
    49    46    47   1
    50    46    54   1
    51    47    48   1
    52    48    49   1
    53    49    50   1
    54    50    51  ar
    55    51    52  ar
    56    51    53  ar
    57    54    55   2
    58    54    56  am
    59    56    57   1
    60    57    58   1
    61    57    65   1
    62    58    59   1
    63    59    60   1
    64    60    61   1
    65    61    62  ar
    66    62    63  ar
    67    62    64  ar
    68    65    66   2
    69    65    67  am
    70     2    68   1
    71     7    69   1
    72     7    70   1
    73     9    71   1
    74    12    72   1
    75    13    73   1
    76    16    74   1
    77    17    75   1
    78    18    76   1
    79    19    77   1
    80    22    78   1
    81    22    79   1
    82    23    80   1
    83    23    81   1
    84    24    82   1
    85    24    83   1
    86    25    84   1
    87    25    85   1
    88    26    86   1
    89    26    87   1
    90    27    88   1
    91    28    89   1
    92    29    90   1
    93    32    91   1
    94    32    92   1
    95    33    93   1
    96    33    94   1
    97    34    95   1
    98    34    96   1
    99    35    97   1
   100    35    98   1
   101    36    99   1
   102    36   100   1
   103    36   101   1
   104    39   102   1
   105    39   103   1
   106    40   104   1
   107    40   105   1
   108    41   106   1
   109    41   107   1
   110    42   108   1
   111    42   109   1
   112    43   110   1
   113    43   111   1
   114    44   112   1
   115    45   113   1
   116    46   114   1
   117    47   115   1
   118    47   116   1
   119    48   117   1
   120    48   118   1
   121    49   119   1
   122    49   120   1
   123    50   121   1
   124    52   122   1
   125    52   123   1
   126    53   124   1
   127    53   125   1
   128    56   126   1
   129    57   127   1
   130    58   128   1
   131    58   129   1
   132    59   130   1
   133    59   131   1
   134    60   132   1
   135    60   133   1
   136    61   134   1
   137    63   135   1
   138    63   136   1
   139    64   137   1
   140    64   138   1
   141    67   139   1
   142    67   140   1
@<TRIPOS>SUBSTRUCTURE
     1  A02      2

