@<TRIPOS>MOLECULE
3ag9_ligand_038
   140   142
SMALL
GAST_HUCK
****
This file was generated by PARSER (from files_GN.cpp)

@<TRIPOS>ATOM
      1 N1          4.0548    6.0725   13.7736 N.ar        1 A02      -0.2698
      2 C2          4.5401    6.0296   15.0454 C.ar        1 A02       0.0533
      3 N3          5.8387    5.6950   15.2758 N.ar        1 A02      -0.2714
      4 C4          6.6591    5.4215   14.2285 C.ar        1 A02       0.1613
      5 C5          6.1877    5.4644   12.9163 C.ar        1 A02       0.1045
      6 C6          4.8413    5.7977   12.6937 C.ar        1 A02       0.1298
      7 N6          4.3187    5.8477   11.4588 N.pl3       1 A02      -0.3152
      8 N7          7.2000    5.1620   12.0918 N.2         1 A02      -0.2958
      9 C8          8.2729    4.9384   12.8786 C.2         1 A02       0.1123
     10 N9          7.9597    5.0943   14.1864 N.pl3       1 A02      -0.1918
     11 OAL        10.7060    2.5061   13.7923 O.2         1 A02      -0.3941
     12 OAN        10.1357    3.7502   17.9203 O.3         1 A02      -0.3840
     13 OAO         7.5644    3.6293   17.0153 O.3         1 A02      -0.3834
     14 OBV        10.2137    4.9733   14.9653 O.3         1 A02      -0.3181
     15 CCC        11.4740    3.0403   14.5801 C.2         1 A02       0.2080
     16 CCK         9.9698    3.2162   16.6032 C.3         1 A02       0.1295
     17 CCL         8.5890    3.5539   16.0234 C.3         1 A02       0.1408
     18 CCM        10.9355    3.9156   15.6124 C.3         1 A02       0.1788
     19 CCN         8.8240    4.9101   15.3251 C.3         1 A02       0.2035
     20 CBZ        14.0623    7.8617   10.7054 C.2         1 A02       0.1782
     21 OAI        14.0740    8.9921   11.1830 O.2         1 A02      -0.3969
     22 CBG        13.6961    6.7390   11.5522 C.3         1 A02       0.0374
     23 CAX        14.9315    5.8613   11.8964 C.3         1 A02      -0.0360
     24 CAU        14.6454    4.6862   12.8658 C.3         1 A02      -0.0492
     25 CAW        13.7205    3.5737   12.2919 C.3         1 A02      -0.0326
     26 CBD        13.4663    2.4173   13.2894 C.3         1 A02       0.0310
     27 NBR        12.7891    2.9255   14.4404 N.am        1 A02      -0.2847
     28 NBS        14.4038    7.6445    9.4384 N.am        1 A02      -0.2656
     29 CCI        14.8884    8.6133    8.4904 C.3         1 A02       0.1308
     30 CCB        16.0618    8.0423    7.8321 C.2         1 A02       0.2016
     31 OAK        17.1676    8.5268    8.0394 O.2         1 A02      -0.3945
     32 CBJ        13.7338    9.0042    7.5130 C.3         1 A02      -0.0122
     33 CAZ        13.9821   10.2654    6.6362 C.3         1 A02      -0.0440
     34 CAS        13.9236   11.6102    7.4221 C.3         1 A02      -0.0124
     35 CAR        13.8219   12.8570    6.5120 C.3         1 A02      -0.0354
     36 NAC        15.1009   13.2531    5.9024 N.4         1 A02       0.2185
     37 CCA        19.3253   11.0326    2.8002 C.2         1 A02       0.1782
     38 OAJ        19.4881   11.1395    1.5896 O.2         1 A02      -0.3969
     39 CBH        18.2008   10.2499    3.3151 C.3         1 A02       0.0374
     40 CAY        18.6667    8.9259    3.9956 C.3         1 A02      -0.0360
     41 CAT        17.5251    8.2525    4.8147 C.3         1 A02      -0.0492
     42 CAV        18.0447    7.0096    5.5874 C.3         1 A02      -0.0326
     43 CBC        16.9525    6.2340    6.3801 C.3         1 A02       0.0310
     44 NBQ        15.9194    6.9947    7.0265 N.am        1 A02      -0.2851
     45 NBT        20.1203   11.6435    3.6751 N.am        1 A02      -0.2656
     46 CCJ        21.2926   12.4400    3.4014 C.3         1 A02       0.1310
     47 CBK        22.4762   11.8540    4.2412 C.3         1 A02      -0.0092
     48 CBB        23.1163   10.5406    3.6832 C.3         1 A02      -0.0156
     49 CBF        23.8349   10.6809    2.3167 C.3         1 A02       0.0627
     50 NBP        24.7820   11.7043    2.3259 N.pl3       1 A02      -0.2723
     51 CBX        25.3260   12.2915    1.3170 C.cat       1 A02       0.2882
     52 NAB        25.1040   11.9954    0.0911 N.pl3       1 A02      -0.2849
     53 NAE        26.1462   13.2440    1.5643 N.pl3       1 A02      -0.2849
     54 CCD        21.0755   13.8616    3.6573 C.2         1 A02       0.2039
     55 OAM        22.0065   14.6264    3.4249 O.2         1 A02      -0.3944
     56 N          19.8803   14.3878    3.9370 N.am        1 A02      -0.2637
     57 CA         19.5558   15.7901    3.9568 C.3         1 A02       0.1307
     58 CB         18.0977   16.0017    4.4490 C.3         1 A02      -0.0092
     59 CG         17.9101   15.9393    5.9949 C.3         1 A02      -0.0156
     60 CD         18.4215   17.1961    6.7469 C.3         1 A02       0.0627
     61 NE         17.9739   17.2081    8.0717 N.pl3       1 A02      -0.2723
     62 CZ         18.1551   18.1436    8.9354 C.cat       1 A02       0.2882
     63 NH1        18.8180   19.2160    8.7472 N.pl3       1 A02      -0.2849
     64 NH2        17.6128   17.9980   10.0857 N.pl3       1 A02      -0.2849
     65 C          19.7365   16.3744    2.6266 C.2         1 A02       0.1992
     66 O          19.2033   15.8724    1.6475 O.2         1 A02      -0.3947
     67 NAF        20.4803   17.4413    2.4324 N.am        1 A02      -0.2990
     68 H1          3.9304    6.2481   15.8327 H           1 A02       0.0996
     69 H2          4.8680    5.6423   10.6825 H           1 A02       0.1820
     70 H3          3.3868    6.0851   11.3355 H           1 A02       0.1820
     71 H4          9.1900    4.6770   12.5152 H           1 A02       0.1349
     72 H5          9.5901    3.1792   18.5070 H           1 A02       0.2102
     73 H6          7.4113    2.7026   17.2947 H           1 A02       0.2101
     74 H7         10.1372    2.1373   16.6531 H           1 A02       0.0673
     75 H8          8.3069    2.7995   15.2817 H           1 A02       0.0678
     76 H9         11.7534    4.3782   16.1738 H           1 A02       0.0869
     77 H10         8.6588    5.7297   16.0334 H           1 A02       0.0998
     78 H11        12.9333    6.1486   11.0379 H           1 A02       0.0502
     79 H12        13.2537    7.1000   12.4886 H           1 A02       0.0502
     80 H13        15.6787    6.5092   12.3713 H           1 A02       0.0290
     81 H14        15.3754    5.4645   10.9771 H           1 A02       0.0290
     82 H15        14.2154    5.0939   13.7815 H           1 A02       0.0267
     83 H16        15.6016    4.2246   13.1312 H           1 A02       0.0267
     84 H17        14.1789    3.1629   11.3878 H           1 A02       0.0285
     85 H18        12.7535    4.0050   12.0172 H           1 A02       0.0285
     86 H19        14.4150    1.9840   13.6094 H           1 A02       0.0520
     87 H20        12.8939    1.6302   12.7972 H           1 A02       0.0520
     88 H21        13.3375    3.4336   15.0561 H           1 A02       0.1851
     89 H22        14.3198    6.7360    9.1046 H           1 A02       0.1883
     90 H23        15.1894    9.5279    9.0223 H           1 A02       0.0800
     91 H24        12.8146    9.1597    8.0817 H           1 A02       0.0312
     92 H25        13.5267    8.1632    6.8377 H           1 A02       0.0312
     93 H26        13.2102   10.2899    5.8617 H           1 A02       0.0269
     94 H27        14.9493   10.1861    6.1308 H           1 A02       0.0269
     95 H28        14.8031   11.7041    8.0627 H           1 A02       0.0317
     96 H29        13.0381   11.5921    8.0725 H           1 A02       0.0317
     97 H30        13.4722   13.7116    7.1046 H           1 A02       0.0813
     98 H31        13.0852   12.6881    5.7259 H           1 A02       0.0813
     99 H32        14.9274   13.9884    5.2170 H           1 A02       0.1994
    100 H33        15.5364   12.4492    5.4363 H           1 A02       0.1994
    101 H34        15.7175   13.6178    6.6322 H           1 A02       0.1994
    102 H35        17.5090    9.9978    2.4934 H           1 A02       0.0502
    103 H36        17.6469   10.8775    4.0314 H           1 A02       0.0502
    104 H37        19.5152    9.1360    4.6846 H           1 A02       0.0290
    105 H38        19.0081    8.2360    3.2110 H           1 A02       0.0290
    106 H39        16.7107    7.9497    4.1333 H           1 A02       0.0267
    107 H40        17.1392    8.9723    5.5671 H           1 A02       0.0267
    108 H41        18.8167    7.3355    6.3097 H           1 A02       0.0285
    109 H42        18.5130    6.3066    4.8928 H           1 A02       0.0285
    110 H43        17.4353    5.6118    7.1461 H           1 A02       0.0520
    111 H44        16.4364    5.5530    5.6951 H           1 A02       0.0520
    112 H45        15.0109    6.6994    6.8671 H           1 A02       0.1851
    113 H46        19.8862   11.5442    4.6180 H           1 A02       0.1883
    114 H47        21.5569   12.3863    2.3465 H           1 A02       0.0800
    115 H48        22.1368   11.6574    5.2625 H           1 A02       0.0313
    116 H49        23.2750   12.6035    4.3264 H           1 A02       0.0313
    117 H50        22.3329    9.7788    3.6038 H           1 A02       0.0301
    118 H51        23.8428   10.1745    4.4116 H           1 A02       0.0301
    119 H52        23.0788   10.8535    1.5389 H           1 A02       0.0689
    120 H53        24.3333    9.7370    2.0788 H           1 A02       0.0689
    121 H54        25.0322   12.0330    3.1640 H           1 A02       0.2642
    122 H55        25.5396   12.4688   -0.5866 H           1 A02       0.2615
    123 H56        24.5140   11.3030   -0.1261 H           1 A02       0.2615
    124 H57        26.3262   13.4869    2.4470 H           1 A02       0.2615
    125 H58        26.5629   13.6942    0.8597 H           1 A02       0.2615
    126 H59        19.1479   13.7617    4.0773 H           1 A02       0.1883
    127 H60        20.2391   16.2785    4.6529 H           1 A02       0.0800
    128 H61        17.4569   15.2446    3.9875 H           1 A02       0.0313
    129 H62        17.7255   16.9735    4.1055 H           1 A02       0.0313
    130 H63        18.3974   15.0446    6.3857 H           1 A02       0.0301
    131 H64        16.8399   15.8428    6.1725 H           1 A02       0.0301
    132 H65        18.0488   18.0906    6.2416 H           1 A02       0.0689
    133 H66        19.5150   17.2191    6.7377 H           1 A02       0.0689
    134 H67        17.4537   16.4849    8.3521 H           1 A02       0.2642
    135 H68        18.8771   19.8443    9.4429 H           1 A02       0.2615
    136 H69        19.2361   19.3847    7.9250 H           1 A02       0.2615
    137 H70        17.1114   17.2326   10.2738 H           1 A02       0.2615
    138 H71        17.7197   18.6698   10.7316 H           1 A02       0.2615
    139 H72        20.5716   17.8284    1.5513 H           1 A02       0.1815
    140 H73        20.8631   17.9089    3.1830 H           1 A02       0.1815
@<TRIPOS>BOND
     1     2     1  ar
     2     6     1  ar
     3     3     2  ar
     4     4     3  ar
     5     4     5  ar
     6    10     4   1
     7     5     6  ar
     8     8     5   1
     9     6     7   1
    10     9     8   2
    11    10     9   1
    12    19    10   1
    13    15    11   2
    14    16    12   1
    15    17    13   1
    16    18    14   1
    17    14    19   1
    18    15    18   1
    19    27    15  am
    20    16    17   1
    21    18    16   1
    22    17    19   1
    23    20    21   2
    24    20    22   1
    25    28    20  am
    26    22    23   1
    27    23    24   1
    28    24    25   1
    29    25    26   1
    30    26    27   1
    31    29    28   1
    32    30    29   1
    33    29    32   1
    34    30    31   2
    35    44    30  am
    36    32    33   1
    37    33    34   1
    38    34    35   1
    39    35    36   1
    40    37    38   2
    41    39    37   1
    42    37    45  am
    43    40    39   1
    44    41    40   1
    45    42    41   1
    46    43    42   1
    47    43    44   1
    48    45    46   1
    49    46    47   1
    50    46    54   1
    51    47    48   1
    52    48    49   1
    53    49    50   1
    54    50    51  ar
    55    51    52  ar
    56    51    53  ar
    57    54    55   2
    58    54    56  am
    59    56    57   1
    60    57    58   1
    61    57    65   1
    62    58    59   1
    63    59    60   1
    64    60    61   1
    65    61    62  ar
    66    62    63  ar
    67    62    64  ar
    68    65    66   2
    69    65    67  am
    70     2    68   1
    71     7    69   1
    72     7    70   1
    73     9    71   1
    74    12    72   1
    75    13    73   1
    76    16    74   1
    77    17    75   1
    78    18    76   1
    79    19    77   1
    80    22    78   1
    81    22    79   1
    82    23    80   1
    83    23    81   1
    84    24    82   1
    85    24    83   1
    86    25    84   1
    87    25    85   1
    88    26    86   1
    89    26    87   1
    90    27    88   1
    91    28    89   1
    92    29    90   1
    93    32    91   1
    94    32    92   1
    95    33    93   1
    96    33    94   1
    97    34    95   1
    98    34    96   1
    99    35    97   1
   100    35    98   1
   101    36    99   1
   102    36   100   1
   103    36   101   1
   104    39   102   1
   105    39   103   1
   106    40   104   1
   107    40   105   1
   108    41   106   1
   109    41   107   1
   110    42   108   1
   111    42   109   1
   112    43   110   1
   113    43   111   1
   114    44   112   1
   115    45   113   1
   116    46   114   1
   117    47   115   1
   118    47   116   1
   119    48   117   1
   120    48   118   1
   121    49   119   1
   122    49   120   1
   123    50   121   1
   124    52   122   1
   125    52   123   1
   126    53   124   1
   127    53   125   1
   128    56   126   1
   129    57   127   1
   130    58   128   1
   131    58   129   1
   132    59   130   1
   133    59   131   1
   134    60   132   1
   135    60   133   1
   136    61   134   1
   137    63   135   1
   138    63   136   1
   139    64   137   1
   140    64   138   1
   141    67   139   1
   142    67   140   1
@<TRIPOS>SUBSTRUCTURE
     1  A02      2

