@<TRIPOS>MOLECULE
3ag9_ligand_095
   140   142
SMALL
GAST_HUCK
****
This file was generated by PARSER (from files_GN.cpp)

@<TRIPOS>ATOM
      1 N1          3.4734    9.4847    8.0510 N.ar        1 A02      -0.2698
      2 C2          4.3803    9.6666    9.0515 C.ar        1 A02       0.0533
      3 N3          4.1224    9.2071   10.3063 N.ar        1 A02      -0.2714
      4 C4          2.9633    8.5444   10.5555 C.ar        1 A02       0.1613
      5 C5          2.0298    8.3353    9.5438 C.ar        1 A02       0.1045
      6 C6          2.2996    8.8269    8.2568 C.ar        1 A02       0.1298
      7 N6          1.4350    8.6492    7.2466 N.pl3       1 A02      -0.3152
      8 N7          0.9824    7.6779   10.0549 N.2         1 A02      -0.2958
      9 C8          1.2684    7.4585   11.3517 C.2         1 A02       0.1123
     10 N9          2.4750    7.9758   11.6761 N.pl3       1 A02      -0.1918
     11 OAL         6.2494    7.2800   11.8419 O.2         1 A02      -0.3941
     12 OAN         4.1606    6.8502   15.6601 O.3         1 A02      -0.3840
     13 OAO         2.5022    5.6339   13.8695 O.3         1 A02      -0.3834
     14 OBV         4.2422    8.7255   13.1060 O.3         1 A02      -0.3181
     15 CCC         6.4274    7.8293   12.9261 C.2         1 A02       0.2080
     16 CCK         4.6791    6.7002   14.3329 C.3         1 A02       0.1295
     17 CCL         3.5440    6.4489   13.3287 C.3         1 A02       0.1408
     18 CCM         5.2857    8.0281   13.8133 C.3         1 A02       0.1788
     19 CCN         3.0849    7.8827   12.9743 C.3         1 A02       0.2035
     20 CBZ        11.4035    6.8480    9.7748 C.2         1 A02       0.1782
     21 OAI        10.4948    6.3267   10.4113 O.2         1 A02      -0.3969
     22 CBG        12.3688    7.6651   10.4993 C.3         1 A02       0.0374
     23 CAX        11.8140    9.0436   10.9818 C.3         1 A02      -0.0360
     24 CAU        11.2447    9.1193   12.4390 C.3         1 A02      -0.0492
     25 CAW         9.7009    9.3094   12.5896 C.3         1 A02      -0.0326
     26 CBD         8.8775    7.9951   12.6102 C.3         1 A02       0.0310
     27 NBR         7.6447    8.1790   13.3213 N.am        1 A02      -0.2847
     28 NBS        11.5524    6.6210    8.4644 N.am        1 A02      -0.2656
     29 CCI        10.7349    5.8258    7.5841 C.3         1 A02       0.1308
     30 CCB        10.6348    4.4252    8.0044 C.2         1 A02       0.2016
     31 OAK         9.8287    4.1333    8.8826 O.2         1 A02      -0.3945
     32 CBJ         9.3403    6.5021    7.2955 C.3         1 A02      -0.0122
     33 CAZ         9.3776    7.7158    6.3034 C.3         1 A02      -0.0440
     34 CAS         8.7149    9.0393    6.7964 C.3         1 A02      -0.0124
     35 CAR         9.4769    9.7228    7.9579 C.3         1 A02      -0.0354
     36 NAC         9.1705   11.1621    8.0094 N.4         1 A02       0.2185
     37 CCA        16.8679    1.4413    6.6092 C.2         1 A02       0.1782
     38 OAJ        17.1097    2.2097    5.6825 O.2         1 A02      -0.3969
     39 CBH        15.9723    0.3226    6.3895 C.3         1 A02       0.0374
     40 CAY        14.7409    0.2958    7.3364 C.3         1 A02      -0.0360
     41 CAT        13.6560    1.3489    6.9887 C.3         1 A02      -0.0492
     42 CAV        12.4694    1.3196    7.9925 C.3         1 A02      -0.0326
     43 CBC        11.1932    2.0626    7.5221 C.3         1 A02       0.0310
     44 NBQ        11.3504    3.4809    7.3883 N.am        1 A02      -0.2851
     45 NBT        17.4391    1.5961    7.7984 N.am        1 A02      -0.2656
     46 CCJ        18.3830    2.6135    8.1714 C.3         1 A02       0.1310
     47 CBK        19.0012    2.3106    9.5719 C.3         1 A02      -0.0092
     48 CBB        19.5544    0.8544    9.7305 C.3         1 A02      -0.0156
     49 CBF        20.9196    0.7839   10.4604 C.3         1 A02       0.0627
     50 NBP        21.8920    1.5861    9.8484 N.pl3       1 A02      -0.2723
     51 CBX        22.5268    1.3706    8.7618 C.cat       1 A02       0.2882
     52 NAB        22.4005    0.3316    8.0244 N.pl3       1 A02      -0.2849
     53 NAE        23.3487    2.2732    8.3770 N.pl3       1 A02      -0.2849
     54 CCD        17.7736    3.9377    8.1532 C.2         1 A02       0.2039
     55 OAM        16.7043    4.0940    8.7380 O.2         1 A02      -0.3944
     56 N          18.3769    4.9519    7.5437 N.am        1 A02      -0.2637
     57 CA         17.8871    6.3006    7.4191 C.3         1 A02       0.1307
     58 CB         17.9695    6.7583    5.9205 C.3         1 A02      -0.0092
     59 CG         19.3081    7.4181    5.4472 C.3         1 A02      -0.0156
     60 CD         19.2584    8.9738    5.4988 C.3         1 A02       0.0627
     61 NE         20.5250    9.5508    5.3187 N.pl3       1 A02      -0.2723
     62 CZ         20.7917   10.8070    5.3962 C.cat       1 A02       0.2882
     63 NH1        19.9247   11.7214    5.6311 N.pl3       1 A02      -0.2849
     64 NH2        22.0034   11.1831    5.2328 N.pl3       1 A02      -0.2849
     65 C          18.5427    7.2019    8.3596 C.2         1 A02       0.1992
     66 O          18.1042    8.3320    8.5304 O.2         1 A02      -0.3947
     67 NAF        19.6587    6.8997    8.9987 N.am        1 A02      -0.2990
     68 H1          5.2470   10.1739    8.8631 H           1 A02       0.0996
     69 H2          0.6012    8.1828    7.4013 H           1 A02       0.1820
     70 H3          1.6381    8.9952    6.3665 H           1 A02       0.1820
     71 H4          0.6338    6.9689   11.9854 H           1 A02       0.1349
     72 H5          4.9470    6.9515   16.2388 H           1 A02       0.2102
     73 H6          1.8936    5.4602   13.1196 H           1 A02       0.2101
     74 H7          5.3912    5.8666   14.3315 H           1 A02       0.0673
     75 H8          3.9463    5.9489   12.4385 H           1 A02       0.0678
     76 H9          5.5820    8.6448   14.6724 H           1 A02       0.0869
     77 H10         2.3710    8.2282   13.7288 H           1 A02       0.0998
     78 H11        13.2249    7.8627    9.8433 H           1 A02       0.0502
     79 H12        12.7542    7.0961   11.3526 H           1 A02       0.0502
     80 H13        11.0764    9.4067   10.2657 H           1 A02       0.0290
     81 H14        12.6517    9.7426   10.9318 H           1 A02       0.0290
     82 H15        11.6999    9.9938   12.9216 H           1 A02       0.0267
     83 H16        11.5697    8.2537   13.0327 H           1 A02       0.0267
     84 H17         9.3227    9.9556   11.7928 H           1 A02       0.0285
     85 H18         9.5279    9.8305   13.5372 H           1 A02       0.0285
     86 H19         9.4325    7.2114   13.1376 H           1 A02       0.0520
     87 H20         8.7040    7.6690   11.5822 H           1 A02       0.0520
     88 H21         7.7204    8.5435   14.2216 H           1 A02       0.1851
     89 H22        12.3318    7.0347    8.0503 H           1 A02       0.1883
     90 H23        11.2775    5.8310    6.6357 H           1 A02       0.0800
     91 H24         8.8799    6.8007    8.2413 H           1 A02       0.0312
     92 H25         8.6756    5.7465    6.8571 H           1 A02       0.0312
     93 H26         8.8426    7.4099    5.3876 H           1 A02       0.0269
     94 H27        10.4101    7.9386    5.9930 H           1 A02       0.0269
     95 H28         7.6888    8.8285    7.1098 H           1 A02       0.0317
     96 H29         8.6701    9.7163    5.9387 H           1 A02       0.0317
     97 H30        10.5636    9.6066    7.8361 H           1 A02       0.0813
     98 H31         9.1684    9.2712    8.9048 H           1 A02       0.0813
     99 H32         9.5607   11.5587    8.8732 H           1 A02       0.1994
    100 H33         8.1506   11.3082    7.9876 H           1 A02       0.1994
    101 H34         9.5963   11.6254    7.1970 H           1 A02       0.1994
    102 H35        16.5418   -0.5974    6.5386 H           1 A02       0.0502
    103 H36        15.6156    0.3133    5.3549 H           1 A02       0.0502
    104 H37        15.0596    0.4283    8.3723 H           1 A02       0.0290
    105 H38        14.2897   -0.6950    7.2713 H           1 A02       0.0290
    106 H39        13.2777    1.1472    5.9842 H           1 A02       0.0267
    107 H40        14.0908    2.3509    6.9949 H           1 A02       0.0267
    108 H41        12.7942    1.7380    8.9523 H           1 A02       0.0285
    109 H42        12.1832    0.2775    8.1737 H           1 A02       0.0285
    110 H43        10.3871    1.8155    8.2195 H           1 A02       0.0520
    111 H44        10.8984    1.6770    6.5464 H           1 A02       0.0520
    112 H45        11.9985    3.7891    6.7342 H           1 A02       0.1851
    113 H46        17.2276    0.9285    8.4706 H           1 A02       0.1883
    114 H47        19.2088    2.5776    7.4509 H           1 A02       0.0800
    115 H48        18.2518    2.4913   10.3485 H           1 A02       0.0313
    116 H49        19.8017    3.0416    9.7361 H           1 A02       0.0313
    117 H50        19.6626    0.3793    8.7543 H           1 A02       0.0301
    118 H51        18.8320    0.2593   10.2972 H           1 A02       0.0301
    119 H52        21.2636   -0.2513   10.5230 H           1 A02       0.0689
    120 H53        20.7739    1.1378   11.4831 H           1 A02       0.0689
    121 H54        22.0864    2.3927   10.2813 H           1 A02       0.2642
    122 H55        22.8975    0.2648    7.2352 H           1 A02       0.2615
    123 H56        21.8128   -0.3579    8.2645 H           1 A02       0.2615
    124 H57        23.4631    3.0432    8.8964 H           1 A02       0.2615
    125 H58        23.8462    2.1450    7.5957 H           1 A02       0.2615
    126 H59        19.2503    4.7730    7.1595 H           1 A02       0.1883
    127 H60        16.8208    6.3118    7.6733 H           1 A02       0.0800
    128 H61        17.1337    7.4431    5.7169 H           1 A02       0.0313
    129 H62        17.7840    5.8794    5.2898 H           1 A02       0.0313
    130 H63        19.4980    7.1284    4.4037 H           1 A02       0.0301
    131 H64        20.1429    7.0464    6.0544 H           1 A02       0.0301
    132 H65        18.8589    9.2964    6.4723 H           1 A02       0.0689
    133 H66        18.5862    9.3198    4.6981 H           1 A02       0.0689
    134 H67        21.2522    8.9791    5.1506 H           1 A02       0.2642
    135 H68        20.1860   12.6191    5.6696 H           1 A02       0.2615
    136 H69        19.0238   11.5059    5.7520 H           1 A02       0.2615
    137 H70        22.6707   10.5476    5.0605 H           1 A02       0.2615
    138 H71        22.2192   12.0961    5.2744 H           1 A02       0.2615
    139 H72        20.0746    7.5468    9.5929 H           1 A02       0.1815
    140 H73        20.0798    6.0319    8.8746 H           1 A02       0.1815
@<TRIPOS>BOND
     1     2     1  ar
     2     6     1  ar
     3     3     2  ar
     4     4     3  ar
     5     4     5  ar
     6    10     4   1
     7     5     6  ar
     8     8     5   1
     9     6     7   1
    10     9     8   2
    11    10     9   1
    12    19    10   1
    13    15    11   2
    14    16    12   1
    15    17    13   1
    16    18    14   1
    17    14    19   1
    18    15    18   1
    19    27    15  am
    20    16    17   1
    21    18    16   1
    22    17    19   1
    23    20    21   2
    24    20    22   1
    25    28    20  am
    26    22    23   1
    27    23    24   1
    28    24    25   1
    29    25    26   1
    30    26    27   1
    31    29    28   1
    32    30    29   1
    33    29    32   1
    34    30    31   2
    35    44    30  am
    36    32    33   1
    37    33    34   1
    38    34    35   1
    39    35    36   1
    40    37    38   2
    41    39    37   1
    42    37    45  am
    43    40    39   1
    44    41    40   1
    45    42    41   1
    46    43    42   1
    47    43    44   1
    48    45    46   1
    49    46    47   1
    50    46    54   1
    51    47    48   1
    52    48    49   1
    53    49    50   1
    54    50    51  ar
    55    51    52  ar
    56    51    53  ar
    57    54    55   2
    58    54    56  am
    59    56    57   1
    60    57    58   1
    61    57    65   1
    62    58    59   1
    63    59    60   1
    64    60    61   1
    65    61    62  ar
    66    62    63  ar
    67    62    64  ar
    68    65    66   2
    69    65    67  am
    70     2    68   1
    71     7    69   1
    72     7    70   1
    73     9    71   1
    74    12    72   1
    75    13    73   1
    76    16    74   1
    77    17    75   1
    78    18    76   1
    79    19    77   1
    80    22    78   1
    81    22    79   1
    82    23    80   1
    83    23    81   1
    84    24    82   1
    85    24    83   1
    86    25    84   1
    87    25    85   1
    88    26    86   1
    89    26    87   1
    90    27    88   1
    91    28    89   1
    92    29    90   1
    93    32    91   1
    94    32    92   1
    95    33    93   1
    96    33    94   1
    97    34    95   1
    98    34    96   1
    99    35    97   1
   100    35    98   1
   101    36    99   1
   102    36   100   1
   103    36   101   1
   104    39   102   1
   105    39   103   1
   106    40   104   1
   107    40   105   1
   108    41   106   1
   109    41   107   1
   110    42   108   1
   111    42   109   1
   112    43   110   1
   113    43   111   1
   114    44   112   1
   115    45   113   1
   116    46   114   1
   117    47   115   1
   118    47   116   1
   119    48   117   1
   120    48   118   1
   121    49   119   1
   122    49   120   1
   123    50   121   1
   124    52   122   1
   125    52   123   1
   126    53   124   1
   127    53   125   1
   128    56   126   1
   129    57   127   1
   130    58   128   1
   131    58   129   1
   132    59   130   1
   133    59   131   1
   134    60   132   1
   135    60   133   1
   136    61   134   1
   137    63   135   1
   138    63   136   1
   139    64   137   1
   140    64   138   1
   141    67   139   1
   142    67   140   1
@<TRIPOS>SUBSTRUCTURE
     1  A02      2

