@<TRIPOS>MOLECULE
3ag9_ligand_019
   140   142
SMALL
GAST_HUCK
****
This file was generated by PARSER (from files_GN.cpp)

@<TRIPOS>ATOM
      1 N1          7.9961    4.4710   16.9995 N.ar        1 A02      -0.2698
      2 C2          7.4360    5.2044   15.9946 C.ar        1 A02       0.0533
      3 N3          8.2190    5.7521   15.0257 N.ar        1 A02      -0.2714
      4 C4          9.5642    5.5684   15.0675 C.ar        1 A02       0.1613
      5 C5         10.1577    4.8241   16.0850 C.ar        1 A02       0.1045
      6 C6          9.3381    4.2614   17.0771 C.ar        1 A02       0.1298
      7 N6          9.8625    3.5274   18.0696 N.pl3       1 A02      -0.3152
      8 N7         11.4786    4.7765   15.8721 N.2         1 A02      -0.2958
      9 C8         11.7010    5.4751   14.7449 C.2         1 A02       0.1123
     10 N9         10.5453    5.9663   14.2369 N.pl3       1 A02      -0.1918
     11 OAL        13.9477    6.3397   11.3017 O.2         1 A02      -0.3941
     12 OAN        10.6056    8.6336   10.6347 O.3         1 A02      -0.3840
     13 OAO        10.7117    9.1465   13.3652 O.3         1 A02      -0.3834
     14 OBV        10.6768    5.8242   11.9074 O.3         1 A02      -0.3181
     15 CCC        12.8962    5.7273   11.1207 C.2         1 A02       0.2080
     16 CCK        11.6220    7.9569   11.3750 C.3         1 A02       0.1295
     17 CCL        11.3111    7.9425   12.8801 C.3         1 A02       0.1408
     18 CCM        11.6283    6.4424   11.0229 C.3         1 A02       0.1788
     19 CCN        10.3953    6.6990   13.0099 C.3         1 A02       0.2035
     20 CBZ        18.0052    2.5681    6.7082 C.2         1 A02       0.1782
     21 OAI        18.0731    2.8168    5.5100 O.2         1 A02      -0.3969
     22 CBG        17.1405    1.4846    7.1451 C.3         1 A02       0.0374
     23 CAX        15.7171    1.9630    7.5491 C.3         1 A02      -0.0360
     24 CAU        15.5842    2.4378    9.0234 C.3         1 A02      -0.0492
     25 CAW        14.2243    3.1311    9.3030 C.3         1 A02      -0.0326
     26 CBD        14.0536    3.5701   10.7807 C.3         1 A02       0.0310
     27 NBR        12.9071    4.4179   10.8936 N.am        1 A02      -0.2847
     28 NBS        18.7223    3.2486    7.5932 N.am        1 A02      -0.2656
     29 CCI        19.6354    4.3325    7.3010 C.3         1 A02       0.1308
     30 CCB        18.9549    5.5095    6.7443 C.2         1 A02       0.2016
     31 OAK        17.7290    5.5657    6.7677 O.2         1 A02      -0.3945
     32 CBJ        20.4630    4.6951    8.5773 C.3         1 A02      -0.0122
     33 CAZ        21.1606    3.5166    9.3168 C.3         1 A02      -0.0440
     34 CAS        21.7160    2.4005    8.3885 C.3         1 A02      -0.0124
     35 CAR        22.2323    1.1692    9.1695 C.3         1 A02      -0.0354
     36 NAC        22.5768    0.0800    8.2440 N.4         1 A02       0.2185
     37 CCA        18.1321   12.8109    5.1869 C.2         1 A02       0.1782
     38 OAJ        17.3281   12.5497    6.0758 O.2         1 A02      -0.3969
     39 CBH        19.5408   12.8198    5.5275 C.3         1 A02       0.0374
     40 CAY        20.2871   11.4825    5.2365 C.3         1 A02      -0.0360
     41 CAT        19.3718   10.2236    5.3103 C.3         1 A02      -0.0492
     42 CAV        20.0771    8.9318    5.8000 C.3         1 A02      -0.0326
     43 CBC        19.0992    7.7305    5.7379 C.3         1 A02       0.0310
     44 NBQ        19.6677    6.5169    6.2425 N.am        1 A02      -0.2851
     45 NBT        17.7543   12.9494    3.9218 N.am        1 A02      -0.2656
     46 CCJ        16.4239   12.7818    3.4049 C.3         1 A02       0.1310
     47 CBK        16.4900   12.0644    2.0114 C.3         1 A02      -0.0092
     48 CBB        17.2485   10.7008    2.0243 C.3         1 A02      -0.0156
     49 CBF        17.2590    9.9678    0.6589 C.3         1 A02       0.0627
     50 NBP        16.0166    9.4292    0.3136 N.pl3       1 A02      -0.2723
     51 CBX        15.0594    9.9829   -0.3434 C.cat       1 A02       0.2882
     52 NAB        15.0729   11.1876   -0.7910 N.pl3       1 A02      -0.2849
     53 NAE        14.0095    9.2900   -0.5496 N.pl3       1 A02      -0.2849
     54 CCD        15.7222   14.0645    3.3886 C.2         1 A02       0.2039
     55 OAM        15.2522   14.4968    2.3361 O.2         1 A02      -0.3944
     56 N          15.5814   14.7546    4.5184 N.am        1 A02      -0.2637
     57 CA         14.9256   16.0165    4.7034 C.3         1 A02       0.1307
     58 CB         15.7702   17.0060    5.5654 C.3         1 A02      -0.0092
     59 CG         17.2924   16.6786    5.6548 C.3         1 A02      -0.0156
     60 CD         18.0826   17.6396    6.5735 C.3         1 A02       0.0627
     61 NE         17.6655   17.5397    7.9079 N.pl3       1 A02      -0.2723
     62 CZ         17.8986   18.3770    8.8496 C.cat       1 A02       0.2882
     63 NH1        18.5912   19.4439    8.7413 N.pl3       1 A02      -0.2849
     64 NH2        17.3835   18.1443    9.9962 N.pl3       1 A02      -0.2849
     65 C          13.6252   15.7577    5.3048 C.2         1 A02       0.1992
     66 O          12.5913   16.0506    4.7192 O.2         1 A02      -0.3947
     67 NAF        13.5161   15.1860    6.4903 N.am        1 A02      -0.2990
     68 H1          6.4266    5.3392   15.9644 H           1 A02       0.0996
     69 H2         10.8227    3.3902   18.1141 H           1 A02       0.1820
     70 H3          9.2914    3.1202   18.7404 H           1 A02       0.1820
     71 H4         12.6274    5.5887   14.3246 H           1 A02       0.1349
     72 H5         10.8282    9.5818   10.7084 H           1 A02       0.2102
     73 H6          9.9384    9.3156   12.7820 H           1 A02       0.2101
     74 H7         12.5777    8.4456   11.1695 H           1 A02       0.0673
     75 H8         12.2431    7.7920   13.4328 H           1 A02       0.0678
     76 H9         11.2673    6.3149    9.9967 H           1 A02       0.0869
     77 H10         9.3564    7.0236   12.8879 H           1 A02       0.0998
     78 H11        17.6012    0.9403    7.9773 H           1 A02       0.0502
     79 H12        17.0234    0.7631    6.3258 H           1 A02       0.0502
     80 H13        15.0178    1.1303    7.4028 H           1 A02       0.0290
     81 H14        15.4048    2.7678    6.8770 H           1 A02       0.0290
     82 H15        16.3767    3.1510    9.2638 H           1 A02       0.0267
     83 H16        15.6921    1.5697    9.6810 H           1 A02       0.0267
     84 H17        13.4042    2.4562    9.0430 H           1 A02       0.0285
     85 H18        14.1562    4.0148    8.6587 H           1 A02       0.0285
     86 H19        14.9723    4.0581   11.1273 H           1 A02       0.0520
     87 H20        13.8954    2.6844   11.4051 H           1 A02       0.0520
     88 H21        12.0474    3.9982   10.7285 H           1 A02       0.1851
     89 H22        18.6440    2.9689    8.5228 H           1 A02       0.1883
     90 H23        20.3478    3.9712    6.5479 H           1 A02       0.0800
     91 H24        19.8120    5.1921    9.3010 H           1 A02       0.0312
     92 H25        21.2355    5.4166    8.2927 H           1 A02       0.0312
     93 H26        20.4483    3.0710   10.0168 H           1 A02       0.0269
     94 H27        21.9858    3.9236    9.9045 H           1 A02       0.0269
     95 H28        22.5335    2.8039    7.7762 H           1 A02       0.0317
     96 H29        20.9234    2.0581    7.7122 H           1 A02       0.0317
     97 H30        21.4649    0.7988    9.8581 H           1 A02       0.0813
     98 H31        23.1187    1.4437    9.7491 H           1 A02       0.0813
     99 H32        23.0160   -0.6845    8.7633 H           1 A02       0.1994
    100 H33        23.2204    0.4251    7.5229 H           1 A02       0.1994
    101 H34        21.7240   -0.2646    7.7896 H           1 A02       0.1994
    102 H35        19.6572   13.0342    6.5931 H           1 A02       0.0502
    103 H36        20.0351   13.6322    4.9874 H           1 A02       0.0502
    104 H37        21.1045   11.3862    5.9641 H           1 A02       0.0290
    105 H38        20.7395   11.5232    4.2354 H           1 A02       0.0290
    106 H39        18.9636   10.0359    4.3065 H           1 A02       0.0267
    107 H40        18.5309   10.4188    5.9820 H           1 A02       0.0267
    108 H41        20.4098    9.0669    6.8377 H           1 A02       0.0285
    109 H42        20.9510    8.7244    5.1689 H           1 A02       0.0285
    110 H43        18.8021    7.5553    4.6946 H           1 A02       0.0520
    111 H44        18.2005    7.9590    6.3296 H           1 A02       0.0520
    112 H45        20.6402    6.4346    6.2663 H           1 A02       0.1851
    113 H46        18.4605   13.1023    3.2697 H           1 A02       0.1883
    114 H47        15.8567   12.0999    4.0470 H           1 A02       0.0800
    115 H48        16.9773   12.7215    1.2812 H           1 A02       0.0313
    116 H49        15.4675   11.8766    1.6696 H           1 A02       0.0313
    117 H50        16.8099   10.0492    2.7892 H           1 A02       0.0301
    118 H51        18.2895   10.8905    2.3115 H           1 A02       0.0301
    119 H52        17.9488    9.1301    0.7332 H           1 A02       0.0689
    120 H53        17.6547   10.6291   -0.1083 H           1 A02       0.0689
    121 H54        15.8485    8.5627    0.6197 H           1 A02       0.2642
    122 H55        14.3405   11.5034   -1.2750 H           1 A02       0.2615
    123 H56        15.8218   11.7257   -0.6678 H           1 A02       0.2615
    124 H57        13.9563    8.4066   -0.2352 H           1 A02       0.2615
    125 H58        13.2865    9.6554   -1.0251 H           1 A02       0.2615
    126 H59        15.9433   14.3420    5.3181 H           1 A02       0.1883
    127 H60        14.7773   16.5083    3.7324 H           1 A02       0.0800
    128 H61        15.3796   17.0496    6.5873 H           1 A02       0.0313
    129 H62        15.6565   18.0162    5.1500 H           1 A02       0.0313
    130 H63        17.7182   16.7224    4.6496 H           1 A02       0.0301
    131 H64        17.4154   15.6599    6.0287 H           1 A02       0.0301
    132 H65        17.9372   18.6625    6.2088 H           1 A02       0.0689
    133 H66        19.1496   17.3990    6.5061 H           1 A02       0.0689
    134 H67        17.1383   16.8022    8.1331 H           1 A02       0.2642
    135 H68        18.6728   20.0082    9.4838 H           1 A02       0.2615
    136 H69        18.9938   19.6790    7.9315 H           1 A02       0.2615
    137 H70        16.8642   17.3778   10.1361 H           1 A02       0.2615
    138 H71        17.5161   18.7622   10.6881 H           1 A02       0.2615
    139 H72        12.6376   15.0204    6.8695 H           1 A02       0.1815
    140 H73        14.3196   14.9655    6.9961 H           1 A02       0.1815
@<TRIPOS>BOND
     1     2     1  ar
     2     6     1  ar
     3     3     2  ar
     4     4     3  ar
     5     4     5  ar
     6    10     4   1
     7     5     6  ar
     8     8     5   1
     9     6     7   1
    10     9     8   2
    11    10     9   1
    12    19    10   1
    13    15    11   2
    14    16    12   1
    15    17    13   1
    16    18    14   1
    17    14    19   1
    18    15    18   1
    19    27    15  am
    20    16    17   1
    21    18    16   1
    22    17    19   1
    23    20    21   2
    24    20    22   1
    25    28    20  am
    26    22    23   1
    27    23    24   1
    28    24    25   1
    29    25    26   1
    30    26    27   1
    31    29    28   1
    32    30    29   1
    33    29    32   1
    34    30    31   2
    35    44    30  am
    36    32    33   1
    37    33    34   1
    38    34    35   1
    39    35    36   1
    40    37    38   2
    41    39    37   1
    42    37    45  am
    43    40    39   1
    44    41    40   1
    45    42    41   1
    46    43    42   1
    47    43    44   1
    48    45    46   1
    49    46    47   1
    50    46    54   1
    51    47    48   1
    52    48    49   1
    53    49    50   1
    54    50    51  ar
    55    51    52  ar
    56    51    53  ar
    57    54    55   2
    58    54    56  am
    59    56    57   1
    60    57    58   1
    61    57    65   1
    62    58    59   1
    63    59    60   1
    64    60    61   1
    65    61    62  ar
    66    62    63  ar
    67    62    64  ar
    68    65    66   2
    69    65    67  am
    70     2    68   1
    71     7    69   1
    72     7    70   1
    73     9    71   1
    74    12    72   1
    75    13    73   1
    76    16    74   1
    77    17    75   1
    78    18    76   1
    79    19    77   1
    80    22    78   1
    81    22    79   1
    82    23    80   1
    83    23    81   1
    84    24    82   1
    85    24    83   1
    86    25    84   1
    87    25    85   1
    88    26    86   1
    89    26    87   1
    90    27    88   1
    91    28    89   1
    92    29    90   1
    93    32    91   1
    94    32    92   1
    95    33    93   1
    96    33    94   1
    97    34    95   1
    98    34    96   1
    99    35    97   1
   100    35    98   1
   101    36    99   1
   102    36   100   1
   103    36   101   1
   104    39   102   1
   105    39   103   1
   106    40   104   1
   107    40   105   1
   108    41   106   1
   109    41   107   1
   110    42   108   1
   111    42   109   1
   112    43   110   1
   113    43   111   1
   114    44   112   1
   115    45   113   1
   116    46   114   1
   117    47   115   1
   118    47   116   1
   119    48   117   1
   120    48   118   1
   121    49   119   1
   122    49   120   1
   123    50   121   1
   124    52   122   1
   125    52   123   1
   126    53   124   1
   127    53   125   1
   128    56   126   1
   129    57   127   1
   130    58   128   1
   131    58   129   1
   132    59   130   1
   133    59   131   1
   134    60   132   1
   135    60   133   1
   136    61   134   1
   137    63   135   1
   138    63   136   1
   139    64   137   1
   140    64   138   1
   141    67   139   1
   142    67   140   1
@<TRIPOS>SUBSTRUCTURE
     1  A02      2

