@<TRIPOS>MOLECULE
3ag9_ligand_065
   140   142
SMALL
GAST_HUCK
****
This file was generated by PARSER (from files_GN.cpp)

@<TRIPOS>ATOM
      1 N1         -1.6910   11.6839   16.1567 N.ar        1 A02      -0.2698
      2 C2         -1.7196   12.7417   15.2982 C.ar        1 A02       0.0533
      3 N3         -0.6013   13.0958   14.6082 N.ar        1 A02      -0.2714
      4 C4          0.5459   12.3878   14.7736 C.ar        1 A02       0.1613
      5 C5          0.5972   11.3025   15.6488 C.ar        1 A02       0.1045
      6 C6         -0.5627   10.9484   16.3569 C.ar        1 A02       0.1298
      7 N6         -0.5819    9.9186   17.2185 N.pl3       1 A02      -0.3152
      8 N7          1.8417   10.8006   15.6382 N.2         1 A02      -0.2958
      9 C8          2.5419   11.5623   14.7764 C.2         1 A02       0.1123
     10 N9          1.7712   12.5356   14.2395 N.pl3       1 A02      -0.1918
     11 OAL         6.3353   13.0472   12.3845 O.2         1 A02      -0.3941
     12 OAN         5.0361   15.8982   13.5252 O.3         1 A02      -0.3840
     13 OAO         2.3082   15.9987   13.6805 O.3         1 A02      -0.3834
     14 OBV         3.1388   13.0289   12.3773 O.3         1 A02      -0.3181
     15 CCC         5.3684   13.2717   11.6652 C.2         1 A02       0.2080
     16 CCK         4.3499   14.6467   13.5794 C.3         1 A02       0.1295
     17 CCL         2.8935   14.7492   14.0554 C.3         1 A02       0.1408
     18 CCM         4.2068   13.9687   12.1966 C.3         1 A02       0.1788
     19 CCN         2.2008   13.5655   13.3283 C.3         1 A02       0.2035
     20 CBZ        11.2225   10.7370    8.1354 C.2         1 A02       0.1782
     21 OAI        12.0723   11.5328    8.5228 O.2         1 A02      -0.3969
     22 CBG        10.0459   11.2453    7.4430 C.3         1 A02       0.0374
     23 CAX         8.7051   10.7757    8.0836 C.3         1 A02      -0.0360
     24 CAU         7.4308   11.4562    7.4909 C.3         1 A02      -0.0492
     25 CAW         6.7391   12.5188    8.3949 C.3         1 A02      -0.0326
     26 CBD         6.2842   11.9694    9.7750 C.3         1 A02       0.0310
     27 NBR         5.3346   12.8304   10.4158 N.am        1 A02      -0.2847
     28 NBS        11.3434    9.4294    8.3444 N.am        1 A02      -0.2656
     29 CCI        12.3327    8.7124    9.1070 C.3         1 A02       0.1308
     30 CCB        13.6535    8.7878    8.4843 C.2         1 A02       0.2016
     31 OAK        14.1120    7.7864    7.9475 O.2         1 A02      -0.3945
     32 CBJ        12.2935    9.1082   10.6175 C.3         1 A02      -0.0122
     33 CAZ        13.1262    8.2270   11.5888 C.3         1 A02      -0.0440
     34 CAS        12.9259    6.6944   11.3969 C.3         1 A02      -0.0124
     35 CAR        13.0898    5.8654   12.6976 C.3         1 A02      -0.0354
     36 NAC        14.4924    5.5909   13.0273 N.4         1 A02       0.2185
     37 CCA        15.6409   14.9827    4.7374 C.2         1 A02       0.1782
     38 OAJ        15.6508   14.9138    3.5089 O.2         1 A02      -0.3969
     39 CBH        15.2139   13.8116    5.4818 C.3         1 A02       0.0374
     40 CAY        16.3979   12.9537    6.0355 C.3         1 A02      -0.0360
     41 CAT        16.3728   11.4537    5.6191 C.3         1 A02      -0.0492
     42 CAV        15.2636   10.5850    6.2765 C.3         1 A02      -0.0326
     43 CBC        15.5349   10.2068    7.7580 C.3         1 A02       0.0310
     44 NBQ        14.3235    9.9335    8.4646 N.am        1 A02      -0.2851
     45 NBT        16.0290   16.0873    5.3723 N.am        1 A02      -0.2656
     46 CCJ        16.4262   17.3251    4.7526 C.3         1 A02       0.1310
     47 CBK        17.2201   18.2458    5.7337 C.3         1 A02      -0.0092
     48 CBB        18.6934   17.8317    6.0156 C.3         1 A02      -0.0156
     49 CBF        18.9213   16.8977    7.2357 C.3         1 A02       0.0627
     50 NBP        18.1289   17.1511    8.3570 N.pl3       1 A02      -0.2723
     51 CBX        18.1571   18.1588    9.1544 C.cat       1 A02       0.2882
     52 NAB        18.9300   19.1717    9.0644 N.pl3       1 A02      -0.2849
     53 NAE        17.3452   18.1470   10.1375 N.pl3       1 A02      -0.2849
     54 CCD        15.2479   17.9901    4.1775 C.2         1 A02       0.2039
     55 OAM        14.6755   18.9060    4.7650 O.2         1 A02      -0.3944
     56 N          14.8942   17.6668    2.9369 N.am        1 A02      -0.2637
     57 CA         14.0310   18.3885    2.0374 C.3         1 A02       0.1307
     58 CB         14.7413   19.6207    1.3837 C.3         1 A02      -0.0092
     59 CG         16.2362   19.3653    1.0346 C.3         1 A02      -0.0156
     60 CD         16.9606   20.5976    0.4350 C.3         1 A02       0.0627
     61 NE         18.3382   20.5115    0.6594 N.pl3       1 A02      -0.2723
     62 CZ         19.2465   21.3055    0.2403 C.cat       1 A02       0.2882
     63 NH1        19.0430   22.3131   -0.5245 N.pl3       1 A02      -0.2849
     64 NH2        20.4455   21.0786    0.6234 N.pl3       1 A02      -0.2849
     65 C          12.7268   18.6999    2.6189 C.2         1 A02       0.1992
     66 O          11.7433   18.0340    2.3192 O.2         1 A02      -0.3947
     67 NAF        12.5527   19.6702    3.4964 N.am        1 A02      -0.2990
     68 H1         -2.5808   13.2724   15.1744 H           1 A02       0.0996
     69 H2          0.2194    9.3913   17.3677 H           1 A02       0.1820
     70 H3         -1.4000    9.6979   17.6921 H           1 A02       0.1820
     71 H4          3.5314   11.4158   14.5679 H           1 A02       0.1349
     72 H5          4.5610   16.4394   12.8594 H           1 A02       0.2102
     73 H6          1.4088   15.9904   14.0726 H           1 A02       0.2101
     74 H7          4.8933   13.9931   14.2685 H           1 A02       0.0673
     75 H8          2.8371   14.6610   15.1447 H           1 A02       0.0678
     76 H9          3.8916   14.7212   11.4657 H           1 A02       0.0869
     77 H10         1.3407   13.9308   12.7561 H           1 A02       0.0998
     78 H11        10.0872   10.8938    6.4065 H           1 A02       0.0502
     79 H12        10.0652   12.3390    7.4241 H           1 A02       0.0502
     80 H13         8.7476   10.9298    9.1636 H           1 A02       0.0290
     81 H14         8.6151    9.6956    7.9188 H           1 A02       0.0290
     82 H15         6.6905   10.6806    7.2696 H           1 A02       0.0267
     83 H16         7.6801   11.9263    6.5355 H           1 A02       0.0267
     84 H17         5.8579   12.8868    7.8584 H           1 A02       0.0285
     85 H18         7.4112   13.3674    8.5429 H           1 A02       0.0285
     86 H19         7.1624   11.7963   10.4003 H           1 A02       0.0520
     87 H20         5.7842   11.0090    9.6392 H           1 A02       0.0520
     88 H21         4.5476   13.0579    9.8975 H           1 A02       0.1851
     89 H22        10.6314    8.8782    7.9797 H           1 A02       0.1883
     90 H23        11.9969    7.6695    9.0595 H           1 A02       0.0800
     91 H24        11.2543    9.0838   10.9581 H           1 A02       0.0312
     92 H25        12.6384   10.1362   10.7378 H           1 A02       0.0312
     93 H26        12.8318    8.4953   12.6089 H           1 A02       0.0269
     94 H27        14.1892    8.4633   11.4845 H           1 A02       0.0269
     95 H28        13.6367    6.3240   10.6530 H           1 A02       0.0317
     96 H29        11.9174    6.5012   11.0191 H           1 A02       0.0317
     97 H30        12.5725    4.9079   12.5878 H           1 A02       0.0813
     98 H31        12.6354    6.4004   13.5365 H           1 A02       0.0813
     99 H32        14.5257    5.1149   13.9345 H           1 A02       0.1994
    100 H33        15.0147    6.4692   13.0882 H           1 A02       0.1994
    101 H34        14.9088    4.9947   12.3072 H           1 A02       0.1994
    102 H35        14.5813   13.2082    4.8220 H           1 A02       0.0502
    103 H36        14.5717   14.1242    6.3136 H           1 A02       0.0502
    104 H37        16.4050   13.0295    7.1260 H           1 A02       0.0290
    105 H38        17.3566   13.3586    5.6890 H           1 A02       0.0290
    106 H39        17.3463   11.0078    5.8414 H           1 A02       0.0267
    107 H40        16.2420   11.4099    4.5336 H           1 A02       0.0267
    108 H41        15.1781    9.6583    5.7027 H           1 A02       0.0285
    109 H42        14.3050   11.1034    6.2054 H           1 A02       0.0285
    110 H43        16.0183   11.0418    8.2667 H           1 A02       0.0520
    111 H44        16.2027    9.3425    7.8134 H           1 A02       0.0520
    112 H45        13.9414   10.6745    8.9592 H           1 A02       0.1851
    113 H46        16.0518   16.0534    6.3444 H           1 A02       0.1883
    114 H47        17.1222   17.1120    3.9284 H           1 A02       0.0800
    115 H48        16.6696   18.3455    6.6726 H           1 A02       0.0313
    116 H49        17.2587   19.2426    5.2806 H           1 A02       0.0313
    117 H50        19.2732   18.7439    6.1732 H           1 A02       0.0301
    118 H51        19.1126   17.3542    5.1263 H           1 A02       0.0301
    119 H52        19.9735   16.9517    7.5281 H           1 A02       0.0689
    120 H53        18.7222   15.8700    6.9238 H           1 A02       0.0689
    121 H54        17.5096   16.4890    8.5824 H           1 A02       0.2642
    122 H55        18.8499   19.8601    9.6936 H           1 A02       0.2615
    123 H56        19.5581   19.2385    8.3795 H           1 A02       0.2615
    124 H57        16.7729   17.4181   10.2614 H           1 A02       0.2615
    125 H58        17.3305   18.8670   10.7340 H           1 A02       0.2615
    126 H59        15.3666   16.9185    2.5346 H           1 A02       0.1883
    127 H60        13.8632   17.6867    1.2105 H           1 A02       0.0800
    128 H61        14.6983   20.4825    2.0594 H           1 A02       0.0313
    129 H62        14.2060   19.8950    0.4663 H           1 A02       0.0313
    130 H63        16.3112   18.5353    0.3241 H           1 A02       0.0301
    131 H64        16.7538   19.0674    1.9503 H           1 A02       0.0301
    132 H65        16.5804   21.5113    0.9036 H           1 A02       0.0689
    133 H66        16.7590   20.6440   -0.6401 H           1 A02       0.0689
    134 H67        18.6302   19.8120    1.2118 H           1 A02       0.2642
    135 H68        19.7596   22.8539   -0.7923 H           1 A02       0.2615
    136 H69        18.1789   22.5097   -0.8230 H           1 A02       0.2615
    137 H70        20.6232   20.3522    1.1866 H           1 A02       0.2615
    138 H71        21.1450   21.6408    0.3613 H           1 A02       0.2615
    139 H72        11.6631   19.8211    3.8705 H           1 A02       0.1815
    140 H73        13.3039   20.2383    3.7464 H           1 A02       0.1815
@<TRIPOS>BOND
     1     2     1  ar
     2     6     1  ar
     3     3     2  ar
     4     4     3  ar
     5     4     5  ar
     6    10     4   1
     7     5     6  ar
     8     8     5   1
     9     6     7   1
    10     9     8   2
    11    10     9   1
    12    19    10   1
    13    15    11   2
    14    16    12   1
    15    17    13   1
    16    18    14   1
    17    14    19   1
    18    15    18   1
    19    27    15  am
    20    16    17   1
    21    18    16   1
    22    17    19   1
    23    20    21   2
    24    20    22   1
    25    28    20  am
    26    22    23   1
    27    23    24   1
    28    24    25   1
    29    25    26   1
    30    26    27   1
    31    29    28   1
    32    30    29   1
    33    29    32   1
    34    30    31   2
    35    44    30  am
    36    32    33   1
    37    33    34   1
    38    34    35   1
    39    35    36   1
    40    37    38   2
    41    39    37   1
    42    37    45  am
    43    40    39   1
    44    41    40   1
    45    42    41   1
    46    43    42   1
    47    43    44   1
    48    45    46   1
    49    46    47   1
    50    46    54   1
    51    47    48   1
    52    48    49   1
    53    49    50   1
    54    50    51  ar
    55    51    52  ar
    56    51    53  ar
    57    54    55   2
    58    54    56  am
    59    56    57   1
    60    57    58   1
    61    57    65   1
    62    58    59   1
    63    59    60   1
    64    60    61   1
    65    61    62  ar
    66    62    63  ar
    67    62    64  ar
    68    65    66   2
    69    65    67  am
    70     2    68   1
    71     7    69   1
    72     7    70   1
    73     9    71   1
    74    12    72   1
    75    13    73   1
    76    16    74   1
    77    17    75   1
    78    18    76   1
    79    19    77   1
    80    22    78   1
    81    22    79   1
    82    23    80   1
    83    23    81   1
    84    24    82   1
    85    24    83   1
    86    25    84   1
    87    25    85   1
    88    26    86   1
    89    26    87   1
    90    27    88   1
    91    28    89   1
    92    29    90   1
    93    32    91   1
    94    32    92   1
    95    33    93   1
    96    33    94   1
    97    34    95   1
    98    34    96   1
    99    35    97   1
   100    35    98   1
   101    36    99   1
   102    36   100   1
   103    36   101   1
   104    39   102   1
   105    39   103   1
   106    40   104   1
   107    40   105   1
   108    41   106   1
   109    41   107   1
   110    42   108   1
   111    42   109   1
   112    43   110   1
   113    43   111   1
   114    44   112   1
   115    45   113   1
   116    46   114   1
   117    47   115   1
   118    47   116   1
   119    48   117   1
   120    48   118   1
   121    49   119   1
   122    49   120   1
   123    50   121   1
   124    52   122   1
   125    52   123   1
   126    53   124   1
   127    53   125   1
   128    56   126   1
   129    57   127   1
   130    58   128   1
   131    58   129   1
   132    59   130   1
   133    59   131   1
   134    60   132   1
   135    60   133   1
   136    61   134   1
   137    63   135   1
   138    63   136   1
   139    64   137   1
   140    64   138   1
   141    67   139   1
   142    67   140   1
@<TRIPOS>SUBSTRUCTURE
     1  A02      2

