@<TRIPOS>MOLECULE
3ag9_ligand_045
   140   142
SMALL
GAST_HUCK
****
This file was generated by PARSER (from files_GN.cpp)

@<TRIPOS>ATOM
      1 N1         20.6175    3.6815    7.4098 N.ar        1 A02      -0.2698
      2 C2         19.9292    3.3762    6.2774 C.ar        1 A02       0.0533
      3 N3         18.6736    2.8610    6.3532 N.ar        1 A02      -0.2714
      4 C4         18.0986    2.6592    7.5697 C.ar        1 A02       0.1613
      5 C5         18.7836    2.9724    8.7441 C.ar        1 A02       0.1045
      6 C6         20.0836    3.4938    8.6502 C.ar        1 A02       0.1298
      7 N6         20.7974    3.8239    9.7384 N.pl3       1 A02      -0.3152
      8 N7         17.9864    2.6835    9.7852 N.2         1 A02      -0.2958
      9 C8         16.8335    2.2297    9.2633 C.2         1 A02       0.1123
     10 N9         16.8964    2.1745    7.9144 N.pl3       1 A02      -0.1918
     11 OAL        12.7084    4.1473    7.2015 O.2         1 A02      -0.3941
     12 OAN        12.8266   -0.2104    7.8097 O.3         1 A02      -0.3840
     13 OAO        15.1595   -0.5987    6.4545 O.3         1 A02      -0.3834
     14 OBV        14.8310    2.6706    6.9406 O.3         1 A02      -0.3181
     15 CCC        12.5207    2.9453    7.4030 C.2         1 A02       0.2080
     16 CCK        13.8097    0.8148    7.9322 C.3         1 A02       0.1295
     17 CCL        15.2175    0.3605    7.5142 C.3         1 A02       0.1408
     18 CCM        13.5524    2.0146    6.9874 C.3         1 A02       0.1788
     19 CCN        15.8695    1.6834    7.0320 C.3         1 A02       0.2035
     20 CBZ        11.6590    7.2989   10.6153 C.2         1 A02       0.1782
     21 OAI        11.0963    7.4657    9.5377 O.2         1 A02      -0.3969
     22 CBG        10.8611    6.9824   11.7854 C.3         1 A02       0.0374
     23 CAX        10.5838    5.4696   12.0014 C.3         1 A02      -0.0360
     24 CAU         9.9558    4.7417   10.7696 C.3         1 A02      -0.0492
     25 CAW        11.0128    4.1057    9.8318 C.3         1 A02      -0.0326
     26 CBD        10.4150    3.3570    8.6096 C.3         1 A02       0.0310
     27 NBR        11.3937    2.5323    7.9797 N.am        1 A02      -0.2847
     28 NBS        12.9772    7.4594   10.7203 N.am        1 A02      -0.2656
     29 CCI        13.8665    7.9405    9.6940 C.3         1 A02       0.1308
     30 CCB        13.6448    9.3671    9.4925 C.2         1 A02       0.2016
     31 OAK        13.8845   10.1425   10.4132 O.2         1 A02      -0.3945
     32 CBJ        15.3551    7.6037   10.0671 C.3         1 A02      -0.0122
     33 CAZ        16.4408    8.5694    9.4931 C.3         1 A02      -0.0440
     34 CAS        17.9135    8.1732    9.8097 C.3         1 A02      -0.0124
     35 CAR        18.6165    7.4176    8.6573 C.3         1 A02      -0.0354
     36 NAC        19.7979    6.7146    9.1681 N.4         1 A02       0.2185
     37 CCA        14.1207   15.9837    5.1138 C.2         1 A02       0.1782
     38 OAJ        13.6068   16.3325    4.0463 O.2         1 A02      -0.3969
     39 CBH        13.2867   15.2011    6.0166 C.3         1 A02       0.0374
     40 CAY        13.4834   13.6626    5.8828 C.3         1 A02      -0.0360
     41 CAT        12.1818   12.8718    6.2125 C.3         1 A02      -0.0492
     42 CAV        12.3923   11.3758    6.5896 C.3         1 A02      -0.0326
     43 CBC        13.0459   11.2011    7.9842 C.3         1 A02       0.0310
     44 NBQ        13.2164    9.8209    8.3203 N.am        1 A02      -0.2851
     45 NBT        15.2794   16.5104    5.5093 N.am        1 A02      -0.2656
     46 CCJ        16.1272   17.4145    4.7659 C.3         1 A02       0.1310
     47 CBK        16.9932   18.3276    5.7022 C.3         1 A02      -0.0092
     48 CBB        18.4822   17.9159    5.8820 C.3         1 A02      -0.0156
     49 CBF        18.8249   16.9982    7.0903 C.3         1 A02       0.0627
     50 NBP        18.0972   17.1964    8.2659 N.pl3       1 A02      -0.2723
     51 CBX        18.1495   18.1771    9.0961 C.cat       1 A02       0.2882
     52 NAB        18.9088   19.2074    9.0003 N.pl3       1 A02      -0.2849
     53 NAE        17.3931   18.1295   10.1195 N.pl3       1 A02      -0.2849
     54 CCD        15.3117   18.2127    3.8516 C.2         1 A02       0.2039
     55 OAM        15.4063   18.0011    2.6420 O.2         1 A02      -0.3944
     56 N          14.5019   19.1630    4.3109 N.am        1 A02      -0.2637
     57 CA         13.6126   20.0249    3.5770 C.3         1 A02       0.1307
     58 CB         12.2666   19.3042    3.2304 C.3         1 A02      -0.0092
     59 CG         11.3548   19.0407    4.4657 C.3         1 A02      -0.0156
     60 CD          9.9351   19.6585    4.3410 C.3         1 A02       0.0627
     61 NE          9.1925   19.4065    5.4972 N.pl3       1 A02      -0.2723
     62 CZ          7.9465   19.6564    5.6889 C.cat       1 A02       0.2882
     63 NH1         7.1647   20.1774    4.8182 N.pl3       1 A02      -0.2849
     64 NH2         7.4547   19.3815    6.8360 N.pl3       1 A02      -0.2849
     65 C          14.2486   20.6995    2.4520 C.2         1 A02       0.1992
     66 O          14.8720   21.7417    2.6310 O.2         1 A02      -0.3947
     67 NAF        14.2700   20.2034    1.2288 N.am        1 A02      -0.2990
     68 H1         20.3593    3.5275    5.3643 H           1 A02       0.0996
     69 H2         20.4125    3.7215   10.6218 H           1 A02       0.1820
     70 H3         21.6870    4.1984    9.6412 H           1 A02       0.1820
     71 H4         16.0405    1.9359    9.8372 H           1 A02       0.1349
     72 H5         13.0539   -0.8608    8.5130 H           1 A02       0.2102
     73 H6         16.0898   -0.8969    6.3374 H           1 A02       0.2101
     74 H7         13.8276    1.1595    8.9727 H           1 A02       0.0673
     75 H8         15.7432   -0.0931    8.3616 H           1 A02       0.0678
     76 H9         13.3019    1.6499    5.9820 H           1 A02       0.0869
     77 H10        16.2753    1.5470    6.0242 H           1 A02       0.0998
     78 H11         9.8999    7.4945   11.7210 H           1 A02       0.0502
     79 H12        11.3634    7.3857   12.6685 H           1 A02       0.0502
     80 H13         9.8858    5.3924   12.8417 H           1 A02       0.0290
     81 H14        11.5073    4.9709   12.3138 H           1 A02       0.0290
     82 H15         9.3355    5.4448   10.2067 H           1 A02       0.0267
     83 H16         9.3002    3.9439   11.1296 H           1 A02       0.0267
     84 H17        11.6136    3.4052   10.4165 H           1 A02       0.0285
     85 H18        11.6803    4.8850    9.4667 H           1 A02       0.0285
     86 H19         9.9971    4.0671    7.8878 H           1 A02       0.0520
     87 H20         9.6038    2.7064    8.9454 H           1 A02       0.0520
     88 H21        11.2513    1.5716    8.0323 H           1 A02       0.1851
     89 H22        13.3701    7.2930   11.5944 H           1 A02       0.1883
     90 H23        13.6505    7.3954    8.7688 H           1 A02       0.0800
     91 H24        15.5807    6.5865    9.7181 H           1 A02       0.0312
     92 H25        15.4628    7.5990   11.1585 H           1 A02       0.0312
     93 H26        16.2798    9.5569    9.9270 H           1 A02       0.0269
     94 H27        16.3011    8.6730    8.4135 H           1 A02       0.0269
     95 H28        17.9482    7.5778   10.7260 H           1 A02       0.0317
     96 H29        18.4911    9.0819   10.0020 H           1 A02       0.0317
     97 H30        18.9348    8.1259    7.8899 H           1 A02       0.0813
     98 H31        17.9406    6.6874    8.2049 H           1 A02       0.0813
     99 H32        20.4230    6.4644    8.3984 H           1 A02       0.1994
    100 H33        19.4799    5.8688    9.6431 H           1 A02       0.1994
    101 H34        20.2887    7.3086    9.8417 H           1 A02       0.1994
    102 H35        12.2429   15.4504    5.8053 H           1 A02       0.0502
    103 H36        13.4851   15.4821    7.0533 H           1 A02       0.0502
    104 H37        14.2915   13.3571    6.5510 H           1 A02       0.0290
    105 H38        13.7872   13.3975    4.8590 H           1 A02       0.0290
    106 H39        11.5367   12.9025    5.3261 H           1 A02       0.0267
    107 H40        11.6375   13.3685    7.0252 H           1 A02       0.0267
    108 H41        13.0082   10.8836    5.8304 H           1 A02       0.0285
    109 H42        11.4167   10.8732    6.6104 H           1 A02       0.0285
    110 H43        12.4071   11.6834    8.7322 H           1 A02       0.0520
    111 H44        14.0296   11.6759    7.9928 H           1 A02       0.0520
    112 H45        13.0240    9.1667    7.6220 H           1 A02       0.1851
    113 H46        15.5944   16.2327    6.3838 H           1 A02       0.1883
    114 H47        16.8083   16.7950    4.1807 H           1 A02       0.0800
    115 H48        16.5133   18.4136    6.6829 H           1 A02       0.0313
    116 H49        17.0213   19.3410    5.2854 H           1 A02       0.0313
    117 H50        19.0803   18.8285    5.9709 H           1 A02       0.0301
    118 H51        18.8249   17.4230    4.9660 H           1 A02       0.0301
    119 H52        19.8920   17.1116    7.3195 H           1 A02       0.0689
    120 H53        18.6659   15.9600    6.7825 H           1 A02       0.0689
    121 H54        17.4998   16.5210    8.4993 H           1 A02       0.2642
    122 H55        18.8611   19.8612    9.6625 H           1 A02       0.2615
    123 H56        19.5121   19.2905    8.2990 H           1 A02       0.2615
    124 H57        16.8413   17.3884   10.2581 H           1 A02       0.2615
    125 H58        17.4123   18.8322   10.7360 H           1 A02       0.2615
    126 H59        14.5022   19.2799    5.2741 H           1 A02       0.1883
    127 H60        13.3366   20.8130    4.2769 H           1 A02       0.0800
    128 H61        12.4703   18.3442    2.7341 H           1 A02       0.0313
    129 H62        11.7281   19.9368    2.5154 H           1 A02       0.0313
    130 H63        11.8179   19.4658    5.3592 H           1 A02       0.0301
    131 H64        11.2672   17.9595    4.6148 H           1 A02       0.0301
    132 H65         9.4251   19.2364    3.4678 H           1 A02       0.0689
    133 H66        10.0346   20.7400    4.2033 H           1 A02       0.0689
    134 H67         9.6543   19.0472    6.2251 H           1 A02       0.2642
    135 H68         6.2665   20.3371    5.0360 H           1 A02       0.2615
    136 H69         7.4862   20.4005    3.9670 H           1 A02       0.2615
    137 H70         7.9957   19.0071    7.5014 H           1 A02       0.2615
    138 H71         6.5513   19.5564    7.0115 H           1 A02       0.2615
    139 H72        14.7402   20.6652    0.5189 H           1 A02       0.1815
    140 H73        13.8391   19.3558    1.0454 H           1 A02       0.1815
@<TRIPOS>BOND
     1     2     1  ar
     2     6     1  ar
     3     3     2  ar
     4     4     3  ar
     5     4     5  ar
     6    10     4   1
     7     5     6  ar
     8     8     5   1
     9     6     7   1
    10     9     8   2
    11    10     9   1
    12    19    10   1
    13    15    11   2
    14    16    12   1
    15    17    13   1
    16    18    14   1
    17    14    19   1
    18    15    18   1
    19    27    15  am
    20    16    17   1
    21    18    16   1
    22    17    19   1
    23    20    21   2
    24    20    22   1
    25    28    20  am
    26    22    23   1
    27    23    24   1
    28    24    25   1
    29    25    26   1
    30    26    27   1
    31    29    28   1
    32    30    29   1
    33    29    32   1
    34    30    31   2
    35    44    30  am
    36    32    33   1
    37    33    34   1
    38    34    35   1
    39    35    36   1
    40    37    38   2
    41    39    37   1
    42    37    45  am
    43    40    39   1
    44    41    40   1
    45    42    41   1
    46    43    42   1
    47    43    44   1
    48    45    46   1
    49    46    47   1
    50    46    54   1
    51    47    48   1
    52    48    49   1
    53    49    50   1
    54    50    51  ar
    55    51    52  ar
    56    51    53  ar
    57    54    55   2
    58    54    56  am
    59    56    57   1
    60    57    58   1
    61    57    65   1
    62    58    59   1
    63    59    60   1
    64    60    61   1
    65    61    62  ar
    66    62    63  ar
    67    62    64  ar
    68    65    66   2
    69    65    67  am
    70     2    68   1
    71     7    69   1
    72     7    70   1
    73     9    71   1
    74    12    72   1
    75    13    73   1
    76    16    74   1
    77    17    75   1
    78    18    76   1
    79    19    77   1
    80    22    78   1
    81    22    79   1
    82    23    80   1
    83    23    81   1
    84    24    82   1
    85    24    83   1
    86    25    84   1
    87    25    85   1
    88    26    86   1
    89    26    87   1
    90    27    88   1
    91    28    89   1
    92    29    90   1
    93    32    91   1
    94    32    92   1
    95    33    93   1
    96    33    94   1
    97    34    95   1
    98    34    96   1
    99    35    97   1
   100    35    98   1
   101    36    99   1
   102    36   100   1
   103    36   101   1
   104    39   102   1
   105    39   103   1
   106    40   104   1
   107    40   105   1
   108    41   106   1
   109    41   107   1
   110    42   108   1
   111    42   109   1
   112    43   110   1
   113    43   111   1
   114    44   112   1
   115    45   113   1
   116    46   114   1
   117    47   115   1
   118    47   116   1
   119    48   117   1
   120    48   118   1
   121    49   119   1
   122    49   120   1
   123    50   121   1
   124    52   122   1
   125    52   123   1
   126    53   124   1
   127    53   125   1
   128    56   126   1
   129    57   127   1
   130    58   128   1
   131    58   129   1
   132    59   130   1
   133    59   131   1
   134    60   132   1
   135    60   133   1
   136    61   134   1
   137    63   135   1
   138    63   136   1
   139    64   137   1
   140    64   138   1
   141    67   139   1
   142    67   140   1
@<TRIPOS>SUBSTRUCTURE
     1  A02      2

