@<TRIPOS>MOLECULE
3ag9_ligand_041
   140   142
SMALL
GAST_HUCK
****
This file was generated by PARSER (from files_GN.cpp)

@<TRIPOS>ATOM
      1 N1         18.3330    5.5432    3.0208 N.ar        1 A02      -0.2698
      2 C2         17.9201    4.3676    3.5767 C.ar        1 A02       0.0533
      3 N3         18.4600    3.9417    4.7469 N.ar        1 A02      -0.2714
      4 C4         19.4160    4.6795    5.3709 C.ar        1 A02       0.1613
      5 C5         19.8394    5.8882    4.8197 C.ar        1 A02       0.1045
      6 C6         19.2725    6.3334    3.6142 C.ar        1 A02       0.1298
      7 N6         19.6578    7.4703    3.0208 N.pl3       1 A02      -0.3152
      8 N7         20.7680    6.4228    5.6278 N.2         1 A02      -0.2958
      9 C8         20.9003    5.5690    6.6563 C.2         1 A02       0.1123
     10 N9         20.0861    4.4977    6.5245 N.pl3       1 A02      -0.1918
     11 OAL        16.6608    1.0301    9.3549 O.2         1 A02      -0.3941
     12 OAN        19.7679    1.9744   10.4597 O.3         1 A02      -0.3840
     13 OAO        20.8499    4.2902    9.5996 O.3         1 A02      -0.3834
     14 OBV        18.9255    2.5264    7.1584 O.3         1 A02      -0.3181
     15 CCC        17.2137    1.3109    8.2940 C.2         1 A02       0.2080
     16 CCK        18.9415    2.6943    9.5406 C.3         1 A02       0.1295
     17 CCL        19.6717    3.8969    8.9002 C.3         1 A02       0.1408
     18 CCM        18.5913    1.7813    8.3381 C.3         1 A02       0.1788
     19 CCN        19.9874    3.4228    7.4719 C.3         1 A02       0.2035
     20 CBZ        15.2517    5.6954    7.7031 C.2         1 A02       0.1782
     21 OAI        16.0413    6.4782    7.1725 O.2         1 A02      -0.3969
     22 CBG        15.2292    4.3009    7.2812 C.3         1 A02       0.0374
     23 CAX        13.8936    3.8979    6.5979 C.3         1 A02      -0.0360
     24 CAU        13.5305    2.3881    6.7253 C.3         1 A02      -0.0492
     25 CAW        14.4571    1.3842    5.9693 C.3         1 A02      -0.0326
     26 CBD        15.3555    0.4973    6.8718 C.3         1 A02       0.0310
     27 NBR        16.6213    1.1067    7.1217 N.am        1 A02      -0.2847
     28 NBS        14.4409    6.0947    8.6766 N.am        1 A02      -0.2656
     29 CCI        14.3558    7.3975    9.2734 C.3         1 A02       0.1308
     30 CCB        14.0525    8.4084    8.2554 C.2         1 A02       0.2016
     31 OAK        14.9291    9.2221    7.9635 O.2         1 A02      -0.3945
     32 CBJ        13.3074    7.3965   10.4412 C.3         1 A02      -0.0122
     33 CAZ        13.8680    7.3671   11.8941 C.3         1 A02      -0.0440
     34 CAS        14.9715    6.3312   12.2352 C.3         1 A02      -0.0124
     35 CAR        14.5923    4.8353   12.0959 C.3         1 A02      -0.0354
     36 NAC        13.5109    4.4416   13.0039 N.4         1 A02       0.2185
     37 CCA        14.7776   12.9779    5.9087 C.2         1 A02       0.1782
     38 OAJ        15.2483   12.3376    6.8399 O.2         1 A02      -0.3969
     39 CBH        13.3365   12.9336    5.6843 C.3         1 A02       0.0374
     40 CAY        12.4867   13.0436    6.9899 C.3         1 A02      -0.0360
     41 CAT        12.3875   11.7742    7.8936 C.3         1 A02      -0.0492
     42 CAV        11.5717   10.5811    7.3116 C.3         1 A02      -0.0326
     43 CBC        12.3956    9.3996    6.7124 C.3         1 A02       0.0310
     44 NBQ        12.8477    8.4722    7.7095 N.am        1 A02      -0.2851
     45 NBT        15.5567   13.6941    5.1003 N.am        1 A02      -0.2656
     46 CCJ        16.9684   13.9580    5.2491 C.3         1 A02       0.1310
     47 CBK        17.1759   15.5013    5.3582 C.3         1 A02      -0.0092
     48 CBB        18.4800   15.9332    6.0903 C.3         1 A02      -0.0156
     49 CBF        18.4107   17.3774    6.6427 C.3         1 A02       0.0627
     50 NBP        17.6819   17.4281    7.8303 N.pl3       1 A02      -0.2723
     51 CBX        17.3424   18.4724    8.4934 C.cat       1 A02       0.2882
     52 NAB        17.6207   19.6760    8.1654 N.pl3       1 A02      -0.2849
     53 NAE        16.6596   18.3033    9.5590 N.pl3       1 A02      -0.2849
     54 CCD        17.7120   13.4038    4.1322 C.2         1 A02       0.2039
     55 OAM        17.1248   13.1734    3.0706 O.2         1 A02      -0.3944
     56 N          19.0167   13.1466    4.2563 N.am        1 A02      -0.2637
     57 CA         19.9501   12.6825    3.2697 C.3         1 A02       0.1307
     58 CB         20.9354   13.8171    2.8548 C.3         1 A02      -0.0092
     59 CG         20.2936   15.1658    2.4133 C.3         1 A02      -0.0156
     60 CD         21.3258   16.3162    2.2666 C.3         1 A02       0.0627
     61 NE         20.7462   17.5849    2.3487 N.pl3       1 A02      -0.2723
     62 CZ         19.9743   18.1695    1.5100 C.cat       1 A02       0.2882
     63 NH1        19.5997   17.6772    0.3906 N.pl3       1 A02      -0.2849
     64 NH2        19.5477   19.3347    1.8192 N.pl3       1 A02      -0.2849
     65 C          19.3398   11.8954    2.2038 C.2         1 A02       0.1992
     66 O          19.5156   12.1457    1.0208 O.2         1 A02      -0.3947
     67 NAF        18.5934   10.8445    2.4873 N.am        1 A02      -0.2990
     68 H1         17.2045    3.8075    3.1121 H           1 A02       0.0996
     69 H2         20.3344    8.0313    3.4369 H           1 A02       0.1820
     70 H3         19.2552    7.7437    2.1784 H           1 A02       0.1820
     71 H4         21.5411    5.7111    7.4372 H           1 A02       0.1349
     72 H5         19.7804    2.5060   11.2799 H           1 A02       0.2102
     73 H6         20.5706    4.3315   10.5334 H           1 A02       0.2101
     74 H7         18.0549    3.0494   10.0772 H           1 A02       0.0673
     75 H8         18.9885    4.7494    8.8551 H           1 A02       0.0678
     76 H9         19.2370    0.8982    8.3586 H           1 A02       0.0869
     77 H10        20.9210    2.8521    7.4574 H           1 A02       0.0998
     78 H11        15.4044    3.6759    8.1672 H           1 A02       0.0502
     79 H12        16.0505    4.1064    6.5776 H           1 A02       0.0502
     80 H13        13.9316    4.1708    5.5395 H           1 A02       0.0290
     81 H14        13.0730    4.4600    7.0523 H           1 A02       0.0290
     82 H15        12.5177    2.2795    6.3173 H           1 A02       0.0267
     83 H16        13.4625    2.1335    7.7885 H           1 A02       0.0267
     84 H17        15.0778    1.9029    5.2352 H           1 A02       0.0285
     85 H18        13.8199    0.6989    5.4075 H           1 A02       0.0285
     86 H19        15.5700   -0.4328    6.3349 H           1 A02       0.0520
     87 H20        14.8263    0.2280    7.7902 H           1 A02       0.0520
     88 H21        17.1388    1.3348    6.3270 H           1 A02       0.1851
     89 H22        13.8489    5.4154    9.0388 H           1 A02       0.1883
     90 H23        15.3365    7.6233    9.7135 H           1 A02       0.0800
     91 H24        12.6190    6.5543   10.3184 H           1 A02       0.0312
     92 H25        12.6940    8.3047   10.3774 H           1 A02       0.0312
     93 H26        13.0305    7.2277   12.5812 H           1 A02       0.0269
     94 H27        14.2763    8.3574   12.1078 H           1 A02       0.0269
     95 H28        15.2729    6.4983   13.2734 H           1 A02       0.0317
     96 H29        15.8459    6.5246   11.6114 H           1 A02       0.0317
     97 H30        15.4720    4.2301   12.3383 H           1 A02       0.0813
     98 H31        14.2932    4.5978   11.0745 H           1 A02       0.0813
     99 H32        13.3681    3.4286   12.9348 H           1 A02       0.1994
    100 H33        12.6485    4.9247   12.7423 H           1 A02       0.1994
    101 H34        13.7628    4.6820   13.9667 H           1 A02       0.1994
    102 H35        13.0685   12.0247    5.1436 H           1 A02       0.0502
    103 H36        13.0405   13.7731    5.0440 H           1 A02       0.0502
    104 H37        11.4652   13.3363    6.7113 H           1 A02       0.0290
    105 H38        12.8881   13.8678    7.5940 H           1 A02       0.0290
    106 H39        11.8811   12.0904    8.8118 H           1 A02       0.0267
    107 H40        13.3819   11.4395    8.1944 H           1 A02       0.0267
    108 H41        10.8972   10.9527    6.5328 H           1 A02       0.0285
    109 H42        10.9361   10.1700    8.1042 H           1 A02       0.0285
    110 H43        13.2248    9.7689    6.1048 H           1 A02       0.0520
    111 H44        11.7414    8.8339    6.0420 H           1 A02       0.0520
    112 H45        12.1967    7.8064    8.0045 H           1 A02       0.1851
    113 H46        15.1156   14.1267    4.3505 H           1 A02       0.1883
    114 H47        17.3316   13.5169    6.1850 H           1 A02       0.0800
    115 H48        16.3302   15.9230    5.9011 H           1 A02       0.0313
    116 H49        17.1576   15.9479    4.3609 H           1 A02       0.0313
    117 H50        19.3201   15.8713    5.3990 H           1 A02       0.0301
    118 H51        18.6811   15.2440    6.9161 H           1 A02       0.0301
    119 H52        17.9753   18.0303    5.8823 H           1 A02       0.0689
    120 H53        19.4197   17.7260    6.8481 H           1 A02       0.0689
    121 H54        17.3601   16.6150    8.1621 H           1 A02       0.2642
    122 H55        17.3379   20.3711    8.7201 H           1 A02       0.2615
    123 H56        18.1189   19.8641    7.3971 H           1 A02       0.2615
    124 H57        16.4407   17.4406    9.8478 H           1 A02       0.2615
    125 H58        16.4155   19.0514   10.0630 H           1 A02       0.2615
    126 H59        19.4042   13.3710    5.1168 H           1 A02       0.1883
    127 H60        20.5692   11.9614    3.8172 H           1 A02       0.0800
    128 H61        21.5727   13.4522    2.0454 H           1 A02       0.0313
    129 H62        21.5833   14.0205    3.7112 H           1 A02       0.0313
    130 H63        19.5470   15.4671    3.1520 H           1 A02       0.0301
    131 H64        19.7790   15.0236    1.4610 H           1 A02       0.0301
    132 H65        21.8860   16.2131    1.3302 H           1 A02       0.0689
    133 H66        22.0436   16.2615    3.0891 H           1 A02       0.0689
    134 H67        20.9451   18.0694    3.1261 H           1 A02       0.2642
    135 H68        19.0339   18.1609   -0.1728 H           1 A02       0.2615
    136 H69        19.8919   16.8350    0.1268 H           1 A02       0.2615
    137 H70        19.8067   19.7212    2.6340 H           1 A02       0.2615
    138 H71        18.9793   19.8053    1.2413 H           1 A02       0.2615
    139 H72        18.1797   10.3315    1.7762 H           1 A02       0.1815
    140 H73        18.4294   10.5963    3.4108 H           1 A02       0.1815
@<TRIPOS>BOND
     1     2     1  ar
     2     6     1  ar
     3     3     2  ar
     4     4     3  ar
     5     4     5  ar
     6    10     4   1
     7     5     6  ar
     8     8     5   1
     9     6     7   1
    10     9     8   2
    11    10     9   1
    12    19    10   1
    13    15    11   2
    14    16    12   1
    15    17    13   1
    16    18    14   1
    17    14    19   1
    18    15    18   1
    19    27    15  am
    20    16    17   1
    21    18    16   1
    22    17    19   1
    23    20    21   2
    24    20    22   1
    25    28    20  am
    26    22    23   1
    27    23    24   1
    28    24    25   1
    29    25    26   1
    30    26    27   1
    31    29    28   1
    32    30    29   1
    33    29    32   1
    34    30    31   2
    35    44    30  am
    36    32    33   1
    37    33    34   1
    38    34    35   1
    39    35    36   1
    40    37    38   2
    41    39    37   1
    42    37    45  am
    43    40    39   1
    44    41    40   1
    45    42    41   1
    46    43    42   1
    47    43    44   1
    48    45    46   1
    49    46    47   1
    50    46    54   1
    51    47    48   1
    52    48    49   1
    53    49    50   1
    54    50    51  ar
    55    51    52  ar
    56    51    53  ar
    57    54    55   2
    58    54    56  am
    59    56    57   1
    60    57    58   1
    61    57    65   1
    62    58    59   1
    63    59    60   1
    64    60    61   1
    65    61    62  ar
    66    62    63  ar
    67    62    64  ar
    68    65    66   2
    69    65    67  am
    70     2    68   1
    71     7    69   1
    72     7    70   1
    73     9    71   1
    74    12    72   1
    75    13    73   1
    76    16    74   1
    77    17    75   1
    78    18    76   1
    79    19    77   1
    80    22    78   1
    81    22    79   1
    82    23    80   1
    83    23    81   1
    84    24    82   1
    85    24    83   1
    86    25    84   1
    87    25    85   1
    88    26    86   1
    89    26    87   1
    90    27    88   1
    91    28    89   1
    92    29    90   1
    93    32    91   1
    94    32    92   1
    95    33    93   1
    96    33    94   1
    97    34    95   1
    98    34    96   1
    99    35    97   1
   100    35    98   1
   101    36    99   1
   102    36   100   1
   103    36   101   1
   104    39   102   1
   105    39   103   1
   106    40   104   1
   107    40   105   1
   108    41   106   1
   109    41   107   1
   110    42   108   1
   111    42   109   1
   112    43   110   1
   113    43   111   1
   114    44   112   1
   115    45   113   1
   116    46   114   1
   117    47   115   1
   118    47   116   1
   119    48   117   1
   120    48   118   1
   121    49   119   1
   122    49   120   1
   123    50   121   1
   124    52   122   1
   125    52   123   1
   126    53   124   1
   127    53   125   1
   128    56   126   1
   129    57   127   1
   130    58   128   1
   131    58   129   1
   132    59   130   1
   133    59   131   1
   134    60   132   1
   135    60   133   1
   136    61   134   1
   137    63   135   1
   138    63   136   1
   139    64   137   1
   140    64   138   1
   141    67   139   1
   142    67   140   1
@<TRIPOS>SUBSTRUCTURE
     1  A02      2

