@<TRIPOS>MOLECULE
3ag9_ligand_070
   140   142
SMALL
GAST_HUCK
****
This file was generated by PARSER (from files_GN.cpp)

@<TRIPOS>ATOM
      1 N1         -0.8217   12.1680   11.3356 N.ar        1 A02      -0.2698
      2 C2         -1.4232   11.1126   11.9560 C.ar        1 A02       0.0533
      3 N3         -0.7479   10.3908   12.8925 N.ar        1 A02      -0.2714
      4 C4          0.5315   10.7225   13.2083 C.ar        1 A02       0.1613
      5 C5          1.1591   11.8028   12.5905 C.ar        1 A02       0.1045
      6 C6          0.4551   12.5419   11.6208 C.ar        1 A02       0.1298
      7 N6          1.0103   13.5878   10.9875 N.pl3       1 A02      -0.3152
      8 N7          2.3964   11.9183   13.0880 N.2         1 A02      -0.2958
      9 C8          2.5304   10.9298   13.9939 C.2         1 A02       0.1123
     10 N9          1.4067   10.1804   14.0787 N.pl3       1 A02      -0.1918
     11 OAL         4.9397    8.6721   15.8788 O.2         1 A02      -0.3941
     12 OAN         2.2782    5.7164   13.8998 O.3         1 A02      -0.3840
     13 OAO        -0.0100    6.8757   14.8444 O.3         1 A02      -0.3834
     14 OBV         2.2784    8.7572   15.7990 O.3         1 A02      -0.3181
     15 CCC         4.4138    7.7411   15.2817 C.2         1 A02       0.2080
     16 CCK         2.3086    7.1328   14.0382 C.3         1 A02       0.1295
     17 CCL         0.9005    7.7319   14.1444 C.3         1 A02       0.1408
     18 CCM         2.9713    7.5691   15.3672 C.3         1 A02       0.1788
     19 CCN         1.1630    9.0368   14.9302 C.3         1 A02       0.2035
     20 CBZ         9.7778    3.9692   12.2154 C.2         1 A02       0.1782
     21 OAI         8.7953    3.6278   11.5687 O.2         1 A02      -0.3969
     22 CBG         9.8116    3.7293   13.6528 C.3         1 A02       0.0374
     23 CAX         8.4423    3.5011   14.3714 C.3         1 A02      -0.0360
     24 CAU         7.7054    4.7760   14.8720 C.3         1 A02      -0.0492
     25 CAW         7.1921    5.7328   13.7636 C.3         1 A02      -0.0326
     26 CBD         6.5502    7.0343   14.3147 C.3         1 A02       0.0310
     27 NBR         5.1513    6.8850   14.5833 N.am        1 A02      -0.2847
     28 NBS        10.8753    4.4257   11.6164 N.am        1 A02      -0.2656
     29 CCI        11.1251    4.7086   10.2299 C.3         1 A02       0.1308
     30 CCB        10.8995    3.5647    9.3398 C.2         1 A02       0.2016
     31 OAK         9.7542    3.1728    9.1537 O.2         1 A02      -0.3945
     32 CBJ        10.5319    6.0709    9.7311 C.3         1 A02      -0.0122
     33 CAZ         9.0243    6.3886    9.9616 C.3         1 A02      -0.0440
     34 CAS         8.7059    7.9117   10.0382 C.3         1 A02      -0.0124
     35 CAR         8.8495    8.6924    8.7102 C.3         1 A02      -0.0354
     36 NAC         8.7249   10.1408    8.9404 N.4         1 A02       0.2185
     37 CCA        17.5740    2.7849    5.8007 C.2         1 A02       0.1782
     38 OAJ        18.3653    2.8501    4.8714 O.2         1 A02      -0.3969
     39 CBH        16.7342    1.6049    5.9265 C.3         1 A02       0.0374
     40 CAY        15.2129    1.8825    5.7056 C.3         1 A02      -0.0360
     41 CAT        14.3474    1.8547    6.9995 C.3         1 A02      -0.0492
     42 CAV        12.8198    1.8967    6.6998 C.3         1 A02      -0.0326
     43 CBC        11.9012    1.7763    7.9409 C.3         1 A02       0.0310
     44 NBQ        11.9305    2.9476    8.7682 N.am        1 A02      -0.2851
     45 NBT        17.5128    3.7526    6.7082 N.am        1 A02      -0.2656
     46 CCJ        18.3199    4.9469    6.7592 C.3         1 A02       0.1310
     47 CBK        19.6107    4.8138    7.6508 C.3         1 A02      -0.0092
     48 CBB        19.7204    3.5045    8.4755 C.3         1 A02      -0.0156
     49 CBF        21.1748    3.1270    8.8838 C.3         1 A02       0.0627
     50 NBP        21.2906    1.7737    9.2171 N.pl3       1 A02      -0.2723
     51 CBX        20.6850    1.1427   10.1535 C.cat       1 A02       0.2882
     52 NAB        19.9009    1.6743   11.0139 N.pl3       1 A02      -0.2849
     53 NAE        20.8729   -0.1149   10.2532 N.pl3       1 A02      -0.2849
     54 CCD        17.4208    6.0311    7.1367 C.2         1 A02       0.2039
     55 OAM        16.8974    6.6812    6.2347 O.2         1 A02      -0.3944
     56 N          17.0518    6.2036    8.4035 N.am        1 A02      -0.2637
     57 CA         16.0552    7.1040    8.9178 C.3         1 A02       0.1307
     58 CB         14.6079    6.6909    8.4683 C.3         1 A02      -0.0092
     59 CG         13.5473    7.8296    8.3512 C.3         1 A02      -0.0156
     60 CD         13.4923    8.5276    6.9535 C.3         1 A02       0.0627
     61 NE         13.4921    9.9281    6.9836 N.pl3       1 A02      -0.2723
     62 CZ         12.7449   10.7052    7.6748 C.cat       1 A02       0.2882
     63 NH1        11.8697   10.3055    8.5191 N.pl3       1 A02      -0.2849
     64 NH2        12.8909   11.9654    7.5261 N.pl3       1 A02      -0.2849
     65 C          16.4081    8.5124    8.7364 C.2         1 A02       0.1992
     66 O          16.7794    8.9523    7.6604 O.2         1 A02      -0.3947
     67 NAF        16.1974    9.4054    9.6858 N.am        1 A02      -0.2990
     68 H1         -2.3821   10.8611   11.7190 H           1 A02       0.0996
     69 H2          1.9214   13.8537   11.1897 H           1 A02       0.1820
     70 H3          0.5027   14.0787   10.3231 H           1 A02       0.1820
     71 H4          3.3824   10.7884   14.5364 H           1 A02       0.1349
     72 H5          2.2326    5.5553   12.9308 H           1 A02       0.2102
     73 H6          0.5383    6.2773   15.4003 H           1 A02       0.2101
     74 H7          2.8246    7.5725   13.1766 H           1 A02       0.0673
     75 H8          0.4780    7.9203   13.1553 H           1 A02       0.0678
     76 H9          2.7824    6.8145   16.1329 H           1 A02       0.0869
     77 H10         0.3037    9.2705   15.5667 H           1 A02       0.0998
     78 H11        10.3219    4.5607   14.1507 H           1 A02       0.0502
     79 H12        10.4376    2.8423   13.8072 H           1 A02       0.0502
     80 H13         8.6406    2.8859   15.2544 H           1 A02       0.0290
     81 H14         7.7761    2.9200   13.7329 H           1 A02       0.0290
     82 H15         8.3818    5.3319   15.5242 H           1 A02       0.0267
     83 H16         6.8549    4.4543   15.4746 H           1 A02       0.0267
     84 H17         6.4681    5.2117   13.1282 H           1 A02       0.0285
     85 H18         8.0402    6.0223   13.1353 H           1 A02       0.0285
     86 H19         6.6694    7.8247   13.5657 H           1 A02       0.0520
     87 H20         7.0783    7.3481   15.2212 H           1 A02       0.0520
     88 H21         4.6986    6.1308   14.1736 H           1 A02       0.1851
     89 H22        11.6237    4.5891   12.2114 H           1 A02       0.1883
     90 H23        12.2050    4.8869   10.2215 H           1 A02       0.0800
     91 H24        10.7178    6.1314    8.6552 H           1 A02       0.0312
     92 H25        11.1208    6.8614   10.2059 H           1 A02       0.0312
     93 H26         8.7175    5.9596   10.9148 H           1 A02       0.0269
     94 H27         8.4240    5.9246    9.1717 H           1 A02       0.0269
     95 H28         9.3540    8.3622   10.7949 H           1 A02       0.0317
     96 H29         7.6760    8.0207   10.3849 H           1 A02       0.0317
     97 H30         8.0686    8.3798    8.0110 H           1 A02       0.0813
     98 H31         9.8206    8.5053    8.2516 H           1 A02       0.0813
     99 H32         8.7742   10.6247    8.0414 H           1 A02       0.1994
    100 H33         9.4931   10.4642    9.5419 H           1 A02       0.1994
    101 H34         7.8250   10.3425    9.3898 H           1 A02       0.1994
    102 H35        16.9071    1.1518    6.9035 H           1 A02       0.0502
    103 H36        17.0547    0.8592    5.1944 H           1 A02       0.0502
    104 H37        14.8271    1.1140    5.0275 H           1 A02       0.0290
    105 H38        15.0707    2.8475    5.2067 H           1 A02       0.0290
    106 H39        14.6167    2.7028    7.6375 H           1 A02       0.0267
    107 H40        14.5684    0.9329    7.5471 H           1 A02       0.0267
    108 H41        12.5718    1.0537    6.0526 H           1 A02       0.0285
    109 H42        12.5812    2.8144    6.1613 H           1 A02       0.0285
    110 H43        12.2228    0.9259    8.5465 H           1 A02       0.0520
    111 H44        10.8897    1.5528    7.5937 H           1 A02       0.0520
    112 H45        12.8164    3.2987    8.9634 H           1 A02       0.1851
    113 H46        16.8978    3.6091    7.4466 H           1 A02       0.1883
    114 H47        18.6735    5.1633    5.7439 H           1 A02       0.0800
    115 H48        19.6968    5.6632    8.3383 H           1 A02       0.0313
    116 H49        20.4823    4.8589    6.9898 H           1 A02       0.0313
    117 H50        19.3176    2.6899    7.8694 H           1 A02       0.0301
    118 H51        19.1055    3.5975    9.3724 H           1 A02       0.0301
    119 H52        21.5231    3.7594    9.7064 H           1 A02       0.0689
    120 H53        21.8389    3.2962    8.0315 H           1 A02       0.0689
    121 H54        21.8573    1.2626    8.6748 H           1 A02       0.2642
    122 H55        19.5019    1.1239   11.6561 H           1 A02       0.2615
    123 H56        19.7517    2.5954   11.0297 H           1 A02       0.2615
    124 H57        21.4489   -0.5613    9.6638 H           1 A02       0.2615
    125 H58        20.4587   -0.5865   10.9464 H           1 A02       0.2615
    126 H59        17.4911    5.6497    9.0656 H           1 A02       0.1883
    127 H60        16.0842    6.9275    9.9993 H           1 A02       0.0800
    128 H61        14.2365    5.9670    9.2041 H           1 A02       0.0313
    129 H62        14.6275    6.1449    7.5207 H           1 A02       0.0313
    130 H63        13.7092    8.5585    9.1533 H           1 A02       0.0301
    131 H64        12.5663    7.3872    8.5397 H           1 A02       0.0301
    132 H65        12.6017    8.1808    6.4178 H           1 A02       0.0689
    133 H66        14.3568    8.2345    6.3560 H           1 A02       0.0689
    134 H67        14.1038   10.3438    6.4133 H           1 A02       0.2642
    135 H68        11.3805   10.9201    9.0314 H           1 A02       0.2615
    136 H69        11.7365    9.3906    8.6497 H           1 A02       0.2615
    137 H70        13.5203   12.2999    6.9156 H           1 A02       0.2615
    138 H71        12.3613   12.5653    8.0149 H           1 A02       0.2615
    139 H72        16.3255   10.3446    9.5028 H           1 A02       0.1815
    140 H73        15.8709    9.1386   10.5560 H           1 A02       0.1815
@<TRIPOS>BOND
     1     2     1  ar
     2     6     1  ar
     3     3     2  ar
     4     4     3  ar
     5     4     5  ar
     6    10     4   1
     7     5     6  ar
     8     8     5   1
     9     6     7   1
    10     9     8   2
    11    10     9   1
    12    19    10   1
    13    15    11   2
    14    16    12   1
    15    17    13   1
    16    18    14   1
    17    14    19   1
    18    15    18   1
    19    27    15  am
    20    16    17   1
    21    18    16   1
    22    17    19   1
    23    20    21   2
    24    20    22   1
    25    28    20  am
    26    22    23   1
    27    23    24   1
    28    24    25   1
    29    25    26   1
    30    26    27   1
    31    29    28   1
    32    30    29   1
    33    29    32   1
    34    30    31   2
    35    44    30  am
    36    32    33   1
    37    33    34   1
    38    34    35   1
    39    35    36   1
    40    37    38   2
    41    39    37   1
    42    37    45  am
    43    40    39   1
    44    41    40   1
    45    42    41   1
    46    43    42   1
    47    43    44   1
    48    45    46   1
    49    46    47   1
    50    46    54   1
    51    47    48   1
    52    48    49   1
    53    49    50   1
    54    50    51  ar
    55    51    52  ar
    56    51    53  ar
    57    54    55   2
    58    54    56  am
    59    56    57   1
    60    57    58   1
    61    57    65   1
    62    58    59   1
    63    59    60   1
    64    60    61   1
    65    61    62  ar
    66    62    63  ar
    67    62    64  ar
    68    65    66   2
    69    65    67  am
    70     2    68   1
    71     7    69   1
    72     7    70   1
    73     9    71   1
    74    12    72   1
    75    13    73   1
    76    16    74   1
    77    17    75   1
    78    18    76   1
    79    19    77   1
    80    22    78   1
    81    22    79   1
    82    23    80   1
    83    23    81   1
    84    24    82   1
    85    24    83   1
    86    25    84   1
    87    25    85   1
    88    26    86   1
    89    26    87   1
    90    27    88   1
    91    28    89   1
    92    29    90   1
    93    32    91   1
    94    32    92   1
    95    33    93   1
    96    33    94   1
    97    34    95   1
    98    34    96   1
    99    35    97   1
   100    35    98   1
   101    36    99   1
   102    36   100   1
   103    36   101   1
   104    39   102   1
   105    39   103   1
   106    40   104   1
   107    40   105   1
   108    41   106   1
   109    41   107   1
   110    42   108   1
   111    42   109   1
   112    43   110   1
   113    43   111   1
   114    44   112   1
   115    45   113   1
   116    46   114   1
   117    47   115   1
   118    47   116   1
   119    48   117   1
   120    48   118   1
   121    49   119   1
   122    49   120   1
   123    50   121   1
   124    52   122   1
   125    52   123   1
   126    53   124   1
   127    53   125   1
   128    56   126   1
   129    57   127   1
   130    58   128   1
   131    58   129   1
   132    59   130   1
   133    59   131   1
   134    60   132   1
   135    60   133   1
   136    61   134   1
   137    63   135   1
   138    63   136   1
   139    64   137   1
   140    64   138   1
   141    67   139   1
   142    67   140   1
@<TRIPOS>SUBSTRUCTURE
     1  A02      2

