@<TRIPOS>MOLECULE
3ag9_ligand_097
   140   142
SMALL
GAST_HUCK
****
This file was generated by PARSER (from files_GN.cpp)

@<TRIPOS>ATOM
      1 N1          4.3143    7.7811   12.7606 N.ar        1 A02      -0.2698
      2 C2          4.9190    8.1704   13.9144 C.ar        1 A02       0.0533
      3 N3          6.0701    7.5648   14.3177 N.ar        1 A02      -0.2714
      4 C4          6.6115    6.5679   13.5698 C.ar        1 A02       0.1613
      5 C5          6.0057    6.1573   12.3853 C.ar        1 A02       0.1045
      6 C6          4.8171    6.7897   11.9778 C.ar        1 A02       0.1298
      7 N6          4.1853    6.4387   10.8471 N.pl3       1 A02      -0.3152
      8 N7          6.7477    5.1813   11.8488 N.2         1 A02      -0.2958
      9 C8          7.7850    4.9906   12.6805 C.2         1 A02       0.1123
     10 N9          7.7217    5.8294   13.7390 N.pl3       1 A02      -0.1918
     11 OAL         9.8498    2.1600   14.4922 O.2         1 A02      -0.3941
     12 OAN         8.5778    3.5830   17.6286 O.3         1 A02      -0.3840
     13 OAO         8.5348    6.2679   17.2621 O.3         1 A02      -0.3834
     14 OBV         9.8476    5.1758   14.6181 O.3         1 A02      -0.3181
     15 CCC        10.5638    2.9837   15.0512 C.2         1 A02       0.2080
     16 CCK         8.5698    4.0436   16.2772 C.3         1 A02       0.1295
     17 CCL         8.0444    5.4717   16.1790 C.3         1 A02       0.1408
     18 CCM         9.9774    4.1756   15.6399 C.3         1 A02       0.1788
     19 CCN         8.6513    5.9485   14.8324 C.3         1 A02       0.2035
     20 CBZ        15.4612    4.2468   10.9468 C.2         1 A02       0.1782
     21 OAI        15.8935    3.3954   11.7198 O.2         1 A02      -0.3969
     22 CBG        14.4737    5.1883   11.4449 C.3         1 A02       0.0374
     23 CAX        13.4384    4.6266   12.4760 C.3         1 A02      -0.0360
     24 CAU        13.0309    3.1269   12.3330 C.3         1 A02      -0.0492
     25 CAW        13.6200    2.1798   13.4340 C.3         1 A02      -0.0326
     26 CBD        12.6166    1.7110   14.5128 C.3         1 A02       0.0310
     27 NBR        11.8829    2.8063   15.0987 N.am        1 A02      -0.2847
     28 NBS        15.8886    4.3128    9.6888 N.am        1 A02      -0.2656
     29 CCI        16.8113    3.4143    9.0570 C.3         1 A02       0.1308
     30 CCB        16.1477    2.1263    8.8493 C.2         1 A02       0.2016
     31 OAK        16.4681    1.1807    9.5633 O.2         1 A02      -0.3945
     32 CBJ        17.3735    4.0218    7.7315 C.3         1 A02      -0.0122
     33 CAZ        18.0924    2.9845    6.8180 C.3         1 A02      -0.0440
     34 CAS        18.8508    3.5510    5.5959 C.3         1 A02      -0.0124
     35 CAR        18.2447    3.2562    4.1991 C.3         1 A02      -0.0354
     36 NAC        17.6154    4.4285    3.5748 N.4         1 A02       0.2185
     37 CCA        11.1970    5.0217    8.1087 C.2         1 A02       0.1782
     38 OAJ        10.0768    4.7462    8.5260 O.2         1 A02      -0.3969
     39 CBH        12.2068    3.9821    8.1665 C.3         1 A02       0.0374
     40 CAY        12.1592    2.9993    6.9477 C.3         1 A02      -0.0360
     41 CAT        11.9571    1.5033    7.3187 C.3         1 A02      -0.0492
     42 CAV        13.0664    0.7868    8.1433 C.3         1 A02      -0.0326
     43 CBC        14.4966    0.8099    7.5526 C.3         1 A02       0.0310
     44 NBQ        15.2157    1.9960    7.9110 N.am        1 A02      -0.2851
     45 NBT        11.4395    6.1220    7.4034 N.am        1 A02      -0.2656
     46 CCJ        10.5082    7.1491    6.9940 C.3         1 A02       0.1310
     47 CBK        10.0990    8.1029    8.1533 C.3         1 A02      -0.0092
     48 CBB         9.7905    7.4757    9.5524 C.3         1 A02      -0.0156
     49 CBF         9.4412    8.5351   10.6191 C.3         1 A02       0.0627
     50 NBP        10.5282    8.9300   11.4109 N.pl3       1 A02      -0.2723
     51 CBX        11.0094    8.3382   12.4446 C.cat       1 A02       0.2882
     52 NAB        10.5579    7.2450   12.9302 N.pl3       1 A02      -0.2849
     53 NAE        12.0030    8.8782   13.0498 N.pl3       1 A02      -0.2849
     54 CCD         9.4037    6.6926    6.1499 C.2         1 A02       0.2039
     55 OAM         9.1131    5.5028    6.1184 O.2         1 A02      -0.3944
     56 N           8.7718    7.5540    5.3549 N.am        1 A02      -0.2637
     57 CA          7.7696    7.3369    4.3335 C.3         1 A02       0.1307
     58 CB          6.4317    8.0658    4.7060 C.3         1 A02      -0.0092
     59 CG          5.7655    7.6834    6.0736 C.3         1 A02      -0.0156
     60 CD          4.4046    6.9330    5.9545 C.3         1 A02       0.0627
     61 NE          4.6168    5.5548    5.8012 N.pl3       1 A02      -0.2723
     62 CZ          4.1723    4.5880    6.5160 C.cat       1 A02       0.2882
     63 NH1         3.3551    4.7093    7.5002 N.pl3       1 A02      -0.2849
     64 NH2         4.5668    3.4028    6.2322 N.pl3       1 A02      -0.2849
     65 C           7.5484    5.9654    3.8671 C.2         1 A02       0.1992
     66 O           6.9733    5.1461    4.5768 O.2         1 A02      -0.3947
     67 NAF         8.0070    5.5531    2.7034 N.am        1 A02      -0.2990
     68 H1          4.5142    8.9178   14.4772 H           1 A02       0.0996
     69 H2          4.5380    5.7275   10.2912 H           1 A02       0.1820
     70 H3          3.3702    6.8992   10.5816 H           1 A02       0.1820
     71 H4          8.5193    4.2978   12.5187 H           1 A02       0.1349
     72 H5          9.2348    2.8584   17.6633 H           1 A02       0.2102
     73 H6          7.7773    6.8275   17.5298 H           1 A02       0.2101
     74 H7          7.9257    3.3831   15.6888 H           1 A02       0.0673
     75 H8          6.9492    5.4852   16.1902 H           1 A02       0.0678
     76 H9         10.6623    4.5598   16.4063 H           1 A02       0.0869
     77 H10         8.9578    6.9941   14.9075 H           1 A02       0.0998
     78 H11        13.9142    5.6250   10.6141 H           1 A02       0.0502
     79 H12        15.0163    6.0056   11.9261 H           1 A02       0.0502
     80 H13        12.5353    5.2341   12.3861 H           1 A02       0.0290
     81 H14        13.8192    4.8221   13.4836 H           1 A02       0.0290
     82 H15        13.3435    2.7466   11.3603 H           1 A02       0.0267
     83 H16        11.9368    3.0485   12.3400 H           1 A02       0.0267
     84 H17        14.4681    2.6536   13.9378 H           1 A02       0.0285
     85 H18        14.0169    1.2834   12.9486 H           1 A02       0.0285
     86 H19        13.1748    1.2197   15.3170 H           1 A02       0.0520
     87 H20        11.9532    0.9626   14.0656 H           1 A02       0.0520
     88 H21        12.4068    3.4558   15.5956 H           1 A02       0.1851
     89 H22        15.5419    5.0389    9.1385 H           1 A02       0.1883
     90 H23        17.6782    3.2870    9.7244 H           1 A02       0.0800
     91 H24        18.0961    4.8067    7.9821 H           1 A02       0.0312
     92 H25        16.5589    4.4945    7.1734 H           1 A02       0.0312
     93 H26        17.3629    2.2459    6.4639 H           1 A02       0.0269
     94 H27        18.8243    2.4506    7.4333 H           1 A02       0.0269
     95 H28        19.8526    3.1057    5.6095 H           1 A02       0.0317
     96 H29        18.9853    4.6316    5.7093 H           1 A02       0.0317
     97 H30        17.5149    2.4438    4.2646 H           1 A02       0.0813
     98 H31        19.0446    2.9337    3.5288 H           1 A02       0.0813
     99 H32        17.4658    4.2502    2.5760 H           1 A02       0.1994
    100 H33        18.2315    5.2408    3.6653 H           1 A02       0.1994
    101 H34        16.7194    4.6298    4.0219 H           1 A02       0.1994
    102 H35        12.0698    3.4291    9.0972 H           1 A02       0.0502
    103 H36        13.2000    4.4364    8.2071 H           1 A02       0.0502
    104 H37        13.0686    3.1033    6.3482 H           1 A02       0.0290
    105 H38        11.3281    3.2677    6.2846 H           1 A02       0.0290
    106 H39        11.8036    0.9464    6.3894 H           1 A02       0.0267
    107 H40        11.0261    1.4346    7.8862 H           1 A02       0.0267
    108 H41        12.7741   -0.2628    8.2204 H           1 A02       0.0285
    109 H42        13.0952    1.1794    9.1620 H           1 A02       0.0285
    110 H43        14.4518    0.7628    6.4614 H           1 A02       0.0520
    111 H44        15.0240   -0.0888    7.8929 H           1 A02       0.0520
    112 H45        15.0039    2.7970    7.4086 H           1 A02       0.1851
    113 H46        12.3356    6.2083    7.0494 H           1 A02       0.1883
    114 H47        11.1105    7.7763    6.3279 H           1 A02       0.0800
    115 H48         9.2155    8.6782    7.8488 H           1 A02       0.0313
    116 H49        10.9052    8.8336    8.2836 H           1 A02       0.0313
    117 H50        10.6571    6.9142    9.9036 H           1 A02       0.0301
    118 H51         8.9574    6.7730    9.4423 H           1 A02       0.0301
    119 H52         8.6355    8.1618   11.2571 H           1 A02       0.0689
    120 H53         9.0565    9.4232   10.1100 H           1 A02       0.0689
    121 H54        10.9410    9.7263   11.1738 H           1 A02       0.2642
    122 H55        10.9550    6.8689   13.6919 H           1 A02       0.2615
    123 H56         9.8287    6.8204   12.5335 H           1 A02       0.2615
    124 H57        12.3558    9.6840   12.7477 H           1 A02       0.2615
    125 H58        12.3755    8.4660   13.7975 H           1 A02       0.2615
    126 H59         9.0536    8.4810    5.4473 H           1 A02       0.1883
    127 H60         8.1644    7.8974    3.4743 H           1 A02       0.0800
    128 H61         5.7140    7.9218    3.8883 H           1 A02       0.0313
    129 H62         6.6327    9.1466    4.7271 H           1 A02       0.0313
    130 H63         5.5868    8.6048    6.6408 H           1 A02       0.0301
    131 H64         6.4444    7.0784    6.6808 H           1 A02       0.0301
    132 H65         3.8534    7.2999    5.0829 H           1 A02       0.0689
    133 H66         3.8080    7.1733    6.8438 H           1 A02       0.0689
    134 H67         5.1718    5.3085    5.0885 H           1 A02       0.2642
    135 H68         3.0865    3.9438    7.9852 H           1 A02       0.2615
    136 H69         3.0258    5.5585    7.7426 H           1 A02       0.2615
    137 H70         5.1495    3.2714    5.5168 H           1 A02       0.2615
    138 H71         4.2590    2.6758    6.7317 H           1 A02       0.2615
    139 H72         7.9057    4.6210    2.4470 H           1 A02       0.1815
    140 H73         8.4929    6.1583    2.1137 H           1 A02       0.1815
@<TRIPOS>BOND
     1     2     1  ar
     2     6     1  ar
     3     3     2  ar
     4     4     3  ar
     5     4     5  ar
     6    10     4   1
     7     5     6  ar
     8     8     5   1
     9     6     7   1
    10     9     8   2
    11    10     9   1
    12    19    10   1
    13    15    11   2
    14    16    12   1
    15    17    13   1
    16    18    14   1
    17    14    19   1
    18    15    18   1
    19    27    15  am
    20    16    17   1
    21    18    16   1
    22    17    19   1
    23    20    21   2
    24    20    22   1
    25    28    20  am
    26    22    23   1
    27    23    24   1
    28    24    25   1
    29    25    26   1
    30    26    27   1
    31    29    28   1
    32    30    29   1
    33    29    32   1
    34    30    31   2
    35    44    30  am
    36    32    33   1
    37    33    34   1
    38    34    35   1
    39    35    36   1
    40    37    38   2
    41    39    37   1
    42    37    45  am
    43    40    39   1
    44    41    40   1
    45    42    41   1
    46    43    42   1
    47    43    44   1
    48    45    46   1
    49    46    47   1
    50    46    54   1
    51    47    48   1
    52    48    49   1
    53    49    50   1
    54    50    51  ar
    55    51    52  ar
    56    51    53  ar
    57    54    55   2
    58    54    56  am
    59    56    57   1
    60    57    58   1
    61    57    65   1
    62    58    59   1
    63    59    60   1
    64    60    61   1
    65    61    62  ar
    66    62    63  ar
    67    62    64  ar
    68    65    66   2
    69    65    67  am
    70     2    68   1
    71     7    69   1
    72     7    70   1
    73     9    71   1
    74    12    72   1
    75    13    73   1
    76    16    74   1
    77    17    75   1
    78    18    76   1
    79    19    77   1
    80    22    78   1
    81    22    79   1
    82    23    80   1
    83    23    81   1
    84    24    82   1
    85    24    83   1
    86    25    84   1
    87    25    85   1
    88    26    86   1
    89    26    87   1
    90    27    88   1
    91    28    89   1
    92    29    90   1
    93    32    91   1
    94    32    92   1
    95    33    93   1
    96    33    94   1
    97    34    95   1
    98    34    96   1
    99    35    97   1
   100    35    98   1
   101    36    99   1
   102    36   100   1
   103    36   101   1
   104    39   102   1
   105    39   103   1
   106    40   104   1
   107    40   105   1
   108    41   106   1
   109    41   107   1
   110    42   108   1
   111    42   109   1
   112    43   110   1
   113    43   111   1
   114    44   112   1
   115    45   113   1
   116    46   114   1
   117    47   115   1
   118    47   116   1
   119    48   117   1
   120    48   118   1
   121    49   119   1
   122    49   120   1
   123    50   121   1
   124    52   122   1
   125    52   123   1
   126    53   124   1
   127    53   125   1
   128    56   126   1
   129    57   127   1
   130    58   128   1
   131    58   129   1
   132    59   130   1
   133    59   131   1
   134    60   132   1
   135    60   133   1
   136    61   134   1
   137    63   135   1
   138    63   136   1
   139    64   137   1
   140    64   138   1
   141    67   139   1
   142    67   140   1
@<TRIPOS>SUBSTRUCTURE
     1  A02      2

