@<TRIPOS>MOLECULE
3ag9_ligand_031
   140   142
SMALL
GAST_HUCK
****
This file was generated by PARSER (from files_GN.cpp)

@<TRIPOS>ATOM
      1 N1          8.0312    4.3289   12.2737 N.ar        1 A02      -0.2698
      2 C2          7.3888    5.1567   11.4026 C.ar        1 A02       0.0533
      3 N3          6.3296    5.9022   11.8221 N.ar        1 A02      -0.2714
      4 C4          5.8995    5.8267   13.1092 C.ar        1 A02       0.1613
      5 C5          6.5404    4.9779   14.0122 C.ar        1 A02       0.1045
      6 C6          7.6366    4.2127   13.5709 C.ar        1 A02       0.1298
      7 N6          8.2863    3.3827   14.4022 N.pl3       1 A02      -0.3152
      8 N7          5.9016    5.0519   15.1850 N.2         1 A02      -0.2958
      9 C8          4.8954    5.9247   15.0115 C.2         1 A02       0.1123
     10 N9          4.8795    6.4292   13.7528 N.pl3       1 A02      -0.1918
     11 OAL         6.4023    9.7944   11.4902 O.2         1 A02      -0.3941
     12 OAN         3.3323   10.9009   13.8880 O.3         1 A02      -0.3840
     13 OAO         1.9184    8.5633   13.9379 O.3         1 A02      -0.3834
     14 OBV         4.4608    8.0056   12.0262 O.3         1 A02      -0.3181
     15 CCC         5.2570   10.2283   11.5142 C.2         1 A02       0.2080
     16 CCK         4.0560    9.6976   13.6212 C.3         1 A02       0.1295
     17 CCL         3.3353    8.4343   14.1091 C.3         1 A02       0.1408
     18 CCM         4.2072    9.4163   12.1148 C.3         1 A02       0.1788
     19 CCN         3.9047    7.3275   13.1727 C.3         1 A02       0.2035
     20 CBZ         9.1688   10.4468    7.5509 C.2         1 A02       0.1782
     21 OAI         9.1818    9.7591    6.5319 O.2         1 A02      -0.3969
     22 CBG         7.9202   10.5438    8.3005 C.3         1 A02       0.0374
     23 CAX         6.8103   11.4007    7.6122 C.3         1 A02      -0.0360
     24 CAU         6.6252   12.8500    8.1680 C.3         1 A02      -0.0492
     25 CAW         5.5285   13.0167    9.2650 C.3         1 A02      -0.0326
     26 CBD         5.8837   12.4816   10.6851 C.3         1 A02       0.0310
     27 NBR         4.9632   11.4653   11.1275 N.am        1 A02      -0.2847
     28 NBS        10.2869   10.9714    8.0452 N.am        1 A02      -0.2656
     29 CCI        11.6338   10.6820    7.6085 C.3         1 A02       0.1308
     30 CCB        12.0776   11.6520    6.6053 C.2         1 A02       0.2016
     31 OAK        12.3027   11.2510    5.4690 O.2         1 A02      -0.3945
     32 CBJ        12.5644   10.5858    8.8587 C.3         1 A02      -0.0122
     33 CAZ        13.9990   10.0447    8.5665 C.3         1 A02      -0.0440
     34 CAS        14.5753    9.2195    9.7507 C.3         1 A02      -0.0124
     35 CAR        16.0274    8.7192    9.5445 C.3         1 A02      -0.0354
     36 NAC        16.3211    8.3444    8.1547 N.4         1 A02       0.2185
     37 CCA        17.2196   12.2296    4.9641 C.2         1 A02       0.1782
     38 OAJ        17.6175   12.4971    6.0938 O.2         1 A02      -0.3969
     39 CBH        15.8246   11.8319    4.7842 C.3         1 A02       0.0374
     40 CAY        14.9617   12.8405    3.9695 C.3         1 A02      -0.0360
     41 CAT        14.7781   14.2550    4.5983 C.3         1 A02      -0.0492
     42 CAV        14.0863   14.3218    6.0020 C.3         1 A02      -0.0326
     43 CBC        12.5558   13.9964    6.0005 C.3         1 A02       0.0310
     44 NBQ        12.2049   12.9410    6.9139 N.am        1 A02      -0.2851
     45 NBT        18.0513   12.1879    3.9201 N.am        1 A02      -0.2656
     46 CCJ        19.4873   12.3952    3.9132 C.3         1 A02       0.1310
     47 CBK        20.1968   11.3676    4.8591 C.3         1 A02      -0.0092
     48 CBB        21.7488   11.2554    4.7232 C.3         1 A02      -0.0156
     49 CBF        22.3389    9.9424    5.3034 C.3         1 A02       0.0627
     50 NBP        22.0025    9.7450    6.6496 N.pl3       1 A02      -0.2723
     51 CBX        21.0628    9.0190    7.1359 C.cat       1 A02       0.2882
     52 NAB        20.2409    8.3191    6.4467 N.pl3       1 A02      -0.2849
     53 NAE        20.9218    9.0002    8.4036 N.pl3       1 A02      -0.2849
     54 CCD        19.9134   13.7866    4.0986 C.2         1 A02       0.2039
     55 OAM        21.1159   14.0361    4.0961 O.2         1 A02      -0.3944
     56 N          19.0346   14.7885    4.0930 N.am        1 A02      -0.2637
     57 CA         19.3531   16.1919    4.0352 C.3         1 A02       0.1307
     58 CB         18.1201   17.0364    4.4774 C.3         1 A02      -0.0092
     59 CG         17.5821   16.7246    5.9031 C.3         1 A02      -0.0156
     60 CD         18.5415   17.0955    7.0640 C.3         1 A02       0.0627
     61 NE         17.7739   17.2971    8.2196 N.pl3       1 A02      -0.2723
     62 CZ         17.4770   18.4073    8.7821 C.cat       1 A02       0.2882
     63 NH1        17.8787   19.5679    8.4147 N.pl3       1 A02      -0.2849
     64 NH2        16.6920   18.3645    9.7862 N.pl3       1 A02      -0.2849
     65 C          19.7495   16.5870    2.6853 C.2         1 A02       0.1992
     66 O          19.2255   16.0803    1.7030 O.2         1 A02      -0.3947
     67 NAF        20.5630   17.5955    2.4837 N.am        1 A02      -0.2990
     68 H1          7.7070    5.2176   10.4360 H           1 A02       0.0996
     69 H2          8.0014    3.2984   15.3286 H           1 A02       0.1820
     70 H3          9.0444    2.8695   14.0764 H           1 A02       0.1820
     71 H4          4.2226    6.1492   15.7463 H           1 A02       0.1349
     72 H5          3.3377   10.9820   14.8649 H           1 A02       0.2102
     73 H6          1.5358    7.7454   14.3195 H           1 A02       0.2101
     74 H7          5.0382    9.7573   14.1075 H           1 A02       0.0673
     75 H8          3.5529    8.2584   15.1658 H           1 A02       0.0678
     76 H9          3.2575    9.6099   11.6012 H           1 A02       0.0869
     77 H10         3.0887    6.6994   12.8097 H           1 A02       0.0998
     78 H11         8.1072   10.9257    9.3103 H           1 A02       0.0502
     79 H12         7.5414    9.5225    8.4232 H           1 A02       0.0502
     80 H13         5.8565   10.8670    7.6937 H           1 A02       0.0290
     81 H14         7.0209   11.4714    6.5368 H           1 A02       0.0290
     82 H15         6.3225   13.4840    7.3295 H           1 A02       0.0267
     83 H16         7.5801   13.2450    8.5287 H           1 A02       0.0267
     84 H17         4.6039   12.5561    8.9054 H           1 A02       0.0285
     85 H18         5.3255   14.0863    9.3554 H           1 A02       0.0285
     86 H19         5.7895   13.2986   11.4128 H           1 A02       0.0520
     87 H20         6.9232   12.1397   10.7280 H           1 A02       0.0520
     88 H21         4.0249   11.7249   11.1826 H           1 A02       0.1851
     89 H22        10.2042   11.5017    8.8547 H           1 A02       0.1883
     90 H23        11.6420    9.6786    7.1605 H           1 A02       0.0800
     91 H24        12.0636    9.9178    9.5707 H           1 A02       0.0312
     92 H25        12.6456   11.5699    9.3356 H           1 A02       0.0312
     93 H26        14.6571   10.8930    8.3568 H           1 A02       0.0269
     94 H27        13.9794    9.4033    7.6819 H           1 A02       0.0269
     95 H28        13.9349    8.3464    9.9159 H           1 A02       0.0317
     96 H29        14.5549    9.8308   10.6597 H           1 A02       0.0317
     97 H30        16.1914    7.8335   10.1668 H           1 A02       0.0813
     98 H31        16.7296    9.4912    9.8658 H           1 A02       0.0813
     99 H32        17.2516    7.9258    8.1068 H           1 A02       0.1994
    100 H33        16.2949    9.1774    7.5616 H           1 A02       0.1994
    101 H34        15.6273    7.6670    7.8283 H           1 A02       0.1994
    102 H35        15.3569   11.6645    5.7644 H           1 A02       0.0502
    103 H36        15.8089   10.8647    4.2584 H           1 A02       0.0502
    104 H37        13.9773   12.3965    3.8121 H           1 A02       0.0290
    105 H38        15.4207   12.9699    2.9842 H           1 A02       0.0290
    106 H39        14.1903   14.8649    3.8966 H           1 A02       0.0267
    107 H40        15.7683   14.7141    4.6878 H           1 A02       0.0267
    108 H41        14.2124   15.3508    6.3729 H           1 A02       0.0285
    109 H42        14.6248   13.6693    6.7043 H           1 A02       0.0285
    110 H43        12.1932   13.7667    4.9899 H           1 A02       0.0520
    111 H44        12.0053   14.8860    6.3327 H           1 A02       0.0520
    112 H45        11.9926   13.2029    7.8279 H           1 A02       0.1851
    113 H46        17.6605   11.9373    3.0623 H           1 A02       0.1883
    114 H47        19.7905   12.1272    2.8958 H           1 A02       0.0800
    115 H48        19.7725   10.3792    4.6452 H           1 A02       0.0313
    116 H49        19.9659   11.6135    5.9012 H           1 A02       0.0313
    117 H50        22.2119   12.1085    5.2355 H           1 A02       0.0301
    118 H51        22.0287   11.3131    3.6655 H           1 A02       0.0301
    119 H52        23.4306   10.0039    5.2442 H           1 A02       0.0689
    120 H53        22.0380    9.0980    4.6713 H           1 A02       0.0689
    121 H54        22.5216   10.2162    7.2712 H           1 A02       0.2642
    122 H55        19.5803    7.8160    6.8734 H           1 A02       0.2615
    123 H56        20.2943    8.3037    5.5148 H           1 A02       0.2615
    124 H57        21.4880    9.5072    8.9501 H           1 A02       0.2615
    125 H58        20.2431    8.4872    8.7920 H           1 A02       0.2615
    126 H59        18.0882   14.5617    4.0369 H           1 A02       0.1883
    127 H60        20.1735   16.4050    4.7340 H           1 A02       0.0800
    128 H61        17.3031   16.8726    3.7651 H           1 A02       0.0313
    129 H62        18.3761   18.1028    4.4401 H           1 A02       0.0313
    130 H63        17.3378   15.6608    5.9814 H           1 A02       0.0301
    131 H64        16.6455   17.2853    6.0172 H           1 A02       0.0301
    132 H65        19.1484   17.9674    6.7890 H           1 A02       0.0689
    133 H66        19.2286   16.2661    7.2556 H           1 A02       0.0689
    134 H67        17.3643   16.5319    8.5779 H           1 A02       0.2642
    135 H68        17.5714   20.3180    8.8723 H           1 A02       0.2615
    136 H69        18.4405   19.6713    7.6798 H           1 A02       0.2615
    137 H70        16.3581   17.5499   10.0900 H           1 A02       0.2615
    138 H71        16.4320   19.1561   10.1969 H           1 A02       0.2615
    139 H72        20.7565   17.8879    1.5817 H           1 A02       0.1815
    140 H73        20.9158   18.0898    3.2347 H           1 A02       0.1815
@<TRIPOS>BOND
     1     2     1  ar
     2     6     1  ar
     3     3     2  ar
     4     4     3  ar
     5     4     5  ar
     6    10     4   1
     7     5     6  ar
     8     8     5   1
     9     6     7   1
    10     9     8   2
    11    10     9   1
    12    19    10   1
    13    15    11   2
    14    16    12   1
    15    17    13   1
    16    18    14   1
    17    14    19   1
    18    15    18   1
    19    27    15  am
    20    16    17   1
    21    18    16   1
    22    17    19   1
    23    20    21   2
    24    20    22   1
    25    28    20  am
    26    22    23   1
    27    23    24   1
    28    24    25   1
    29    25    26   1
    30    26    27   1
    31    29    28   1
    32    30    29   1
    33    29    32   1
    34    30    31   2
    35    44    30  am
    36    32    33   1
    37    33    34   1
    38    34    35   1
    39    35    36   1
    40    37    38   2
    41    39    37   1
    42    37    45  am
    43    40    39   1
    44    41    40   1
    45    42    41   1
    46    43    42   1
    47    43    44   1
    48    45    46   1
    49    46    47   1
    50    46    54   1
    51    47    48   1
    52    48    49   1
    53    49    50   1
    54    50    51  ar
    55    51    52  ar
    56    51    53  ar
    57    54    55   2
    58    54    56  am
    59    56    57   1
    60    57    58   1
    61    57    65   1
    62    58    59   1
    63    59    60   1
    64    60    61   1
    65    61    62  ar
    66    62    63  ar
    67    62    64  ar
    68    65    66   2
    69    65    67  am
    70     2    68   1
    71     7    69   1
    72     7    70   1
    73     9    71   1
    74    12    72   1
    75    13    73   1
    76    16    74   1
    77    17    75   1
    78    18    76   1
    79    19    77   1
    80    22    78   1
    81    22    79   1
    82    23    80   1
    83    23    81   1
    84    24    82   1
    85    24    83   1
    86    25    84   1
    87    25    85   1
    88    26    86   1
    89    26    87   1
    90    27    88   1
    91    28    89   1
    92    29    90   1
    93    32    91   1
    94    32    92   1
    95    33    93   1
    96    33    94   1
    97    34    95   1
    98    34    96   1
    99    35    97   1
   100    35    98   1
   101    36    99   1
   102    36   100   1
   103    36   101   1
   104    39   102   1
   105    39   103   1
   106    40   104   1
   107    40   105   1
   108    41   106   1
   109    41   107   1
   110    42   108   1
   111    42   109   1
   112    43   110   1
   113    43   111   1
   114    44   112   1
   115    45   113   1
   116    46   114   1
   117    47   115   1
   118    47   116   1
   119    48   117   1
   120    48   118   1
   121    49   119   1
   122    49   120   1
   123    50   121   1
   124    52   122   1
   125    52   123   1
   126    53   124   1
   127    53   125   1
   128    56   126   1
   129    57   127   1
   130    58   128   1
   131    58   129   1
   132    59   130   1
   133    59   131   1
   134    60   132   1
   135    60   133   1
   136    61   134   1
   137    63   135   1
   138    63   136   1
   139    64   137   1
   140    64   138   1
   141    67   139   1
   142    67   140   1
@<TRIPOS>SUBSTRUCTURE
     1  A02      2

