@<TRIPOS>MOLECULE
3ag9_ligand_000
   140   142
SMALL
GAST_HUCK
****
This file was generated by PARSER (from files_GN.cpp)

@<TRIPOS>ATOM
      1 N1         21.0537    3.7254    9.0081 N.ar        1 A02      -0.2698
      2 C2         20.5528    2.8400    8.1001 C.ar        1 A02       0.0533
      3 N3         19.4922    3.1870    7.3239 N.ar        1 A02      -0.2714
      4 C4         18.9257    4.4175    7.4380 C.ar        1 A02       0.1613
      5 C5         19.4250    5.3317    8.3661 C.ar        1 A02       0.1045
      6 C6         20.5204    4.9652    9.1690 C.ar        1 A02       0.1298
      7 N6         21.0370    5.8009   10.0857 N.pl3       1 A02      -0.3152
      8 N7         18.6963    6.4523    8.3062 N.2         1 A02      -0.2958
      9 C8         17.7623    6.2357    7.3642 C.2         1 A02       0.1123
     10 N9         17.8844    5.0051    6.8116 N.pl3       1 A02      -0.1918
     11 OAL        14.8351    1.7715    8.2147 O.2         1 A02      -0.3941
     12 OAN        16.1232    0.9668    5.1774 O.3         1 A02      -0.3840
     13 OAO        16.9063    3.1710    3.7520 O.3         1 A02      -0.3834
     14 OBV        15.7060    4.3214    6.4834 O.3         1 A02      -0.3181
     15 CCC        14.4116    2.5690    7.3881 C.2         1 A02       0.2080
     16 CCK        16.4568    2.1429    5.9160 C.3         1 A02       0.1295
     17 CCL        17.3064    3.1469    5.1231 C.3         1 A02       0.1408
     18 CCM        15.2146    2.9925    6.2573 C.3         1 A02       0.1788
     19 CCN        16.9693    4.4941    5.8177 C.3         1 A02       0.2035
     20 CBZ         8.7242    7.3322    9.2429 C.2         1 A02       0.1782
     21 OAI         8.3674    7.2644    8.0746 O.2         1 A02      -0.3969
     22 CBG         9.3758    6.1985    9.8848 C.3         1 A02       0.0374
     23 CAX         8.9181    4.7691    9.4333 C.3         1 A02      -0.0360
     24 CAU        10.0145    3.6709    9.5169 C.3         1 A02      -0.0492
     25 CAW        11.0887    3.8089    8.4067 C.3         1 A02      -0.0326
     26 CBD        12.2354    2.7816    8.5063 C.3         1 A02       0.0310
     27 NBR        13.1853    3.0563    7.4765 N.am        1 A02      -0.2847
     28 NBS         8.5988    8.4589    9.9394 N.am        1 A02      -0.2656
     29 CCI         7.9843    9.7180    9.5888 C.3         1 A02       0.1308
     30 CCB         8.1444   10.1531    8.1861 C.2         1 A02       0.2016
     31 OAK         7.9830    9.3396    7.2799 O.2         1 A02      -0.3945
     32 CBJ         6.5547    9.8834   10.1965 C.3         1 A02      -0.0122
     33 CAZ         5.4461    8.8970    9.7340 C.3         1 A02      -0.0440
     34 CAS         4.4660    8.4745   10.8658 C.3         1 A02      -0.0124
     35 CAR         5.0375    7.4286   11.8651 C.3         1 A02      -0.0354
     36 NAC         4.7100    6.0408   11.5060 N.4         1 A02       0.2185
     37 CCA        12.8838   13.1924    6.4600 C.2         1 A02       0.1782
     38 OAJ        12.2478   12.2562    5.9946 O.2         1 A02      -0.3969
     39 CBH        12.1483   14.3062    7.0371 C.3         1 A02       0.0374
     40 CAY        10.9910   13.8380    7.9844 C.3         1 A02      -0.0360
     41 CAT         9.5724   14.2813    7.5229 C.3         1 A02      -0.0492
     42 CAV         8.8896   13.4000    6.4434 C.3         1 A02      -0.0326
     43 CBC         8.9705   11.8633    6.6271 C.3         1 A02       0.0310
     44 NBQ         8.5270   11.4017    7.9138 N.am        1 A02      -0.2851
     45 NBT        14.2092   13.1706    6.5463 N.am        1 A02      -0.2656
     46 CCJ        15.0905   12.0867    6.2086 C.3         1 A02       0.1310
     47 CBK        15.5895   11.3896    7.5097 C.3         1 A02      -0.0092
     48 CBB        14.4742   10.6615    8.3170 C.3         1 A02      -0.0156
     49 CBF        14.9784    9.9781    9.6252 C.3         1 A02       0.0627
     50 NBP        14.9628    8.5787    9.5656 N.pl3       1 A02      -0.2723
     51 CBX        15.8815    7.7432    9.8747 C.cat       1 A02       0.2882
     52 NAB        17.0711    8.0314   10.2683 N.pl3       1 A02      -0.2849
     53 NAE        15.6183    6.4917    9.8231 N.pl3       1 A02      -0.2849
     54 CCD        16.2127   12.5590    5.4043 C.2         1 A02       0.2039
     55 OAM        16.5361   11.9123    4.4137 O.2         1 A02      -0.3944
     56 N          16.8905   13.6594    5.7253 N.am        1 A02      -0.2637
     57 CA         18.0068   14.2408    5.0212 C.3         1 A02       0.1307
     58 CB         18.4223   15.5907    5.6789 C.3         1 A02      -0.0092
     59 CG         17.3785   16.7428    5.6281 C.3         1 A02      -0.0156
     60 CD         17.7686   17.9482    6.5202 C.3         1 A02       0.0627
     61 NE         17.4755   17.7143    7.8676 N.pl3       1 A02      -0.2723
     62 CZ         17.7635   18.4782    8.8527 C.cat       1 A02       0.2882
     63 NH1        18.3891   19.5900    8.7590 N.pl3       1 A02      -0.2849
     64 NH2        17.4030   18.1210   10.0250 N.pl3       1 A02      -0.2849
     65 C          17.7536   14.3797    3.5934 C.2         1 A02       0.1992
     66 O          16.6541   14.7244    3.1760 O.2         1 A02      -0.3947
     67 NAF        18.6956   14.1437    2.7113 N.am        1 A02      -0.2990
     68 H1         20.9705    1.9148    8.0063 H           1 A02       0.0996
     69 H2         20.6535    6.6828   10.2205 H           1 A02       0.1820
     70 H3         21.7997    5.5191   10.6142 H           1 A02       0.1820
     71 H4         17.0483    6.9263    7.1147 H           1 A02       0.1349
     72 H5         16.7476    0.2861    5.5039 H           1 A02       0.2102
     73 H6         17.5631    2.6163    3.2862 H           1 A02       0.2101
     74 H7         16.9914    1.8492    6.8246 H           1 A02       0.0673
     75 H8         18.3689    2.9059    5.1542 H           1 A02       0.0678
     76 H9         14.5672    3.0246    5.3739 H           1 A02       0.0869
     77 H10        16.8485    5.2615    5.0438 H           1 A02       0.0998
     78 H11         9.2088    6.2741   10.9665 H           1 A02       0.0502
     79 H12        10.4504    6.3199    9.7130 H           1 A02       0.0502
     80 H13         8.5597    4.7890    8.3980 H           1 A02       0.0290
     81 H14         8.0648    4.4734   10.0548 H           1 A02       0.0290
     82 H15         9.5212    2.7049    9.3978 H           1 A02       0.0267
     83 H16        10.4781    3.6951   10.5095 H           1 A02       0.0267
     84 H17        11.5170    4.8145    8.4340 H           1 A02       0.0285
     85 H18        10.6000    3.6785    7.4338 H           1 A02       0.0285
     86 H19        11.8348    1.7696    8.3796 H           1 A02       0.0520
     87 H20        12.7183    2.8539    9.4849 H           1 A02       0.0520
     88 H21        12.9024    3.6557    6.7684 H           1 A02       0.1851
     89 H22         8.9697    8.4312   10.8428 H           1 A02       0.1883
     90 H23         8.5849   10.4271   10.1745 H           1 A02       0.0800
     91 H24         6.2037   10.9004    9.9801 H           1 A02       0.0312
     92 H25         6.6507    9.8140   11.2872 H           1 A02       0.0312
     93 H26         5.8926    7.9912    9.3291 H           1 A02       0.0269
     94 H27         4.8792    9.3730    8.9294 H           1 A02       0.0269
     95 H28         3.5618    8.0506   10.4127 H           1 A02       0.0317
     96 H29         4.1571    9.3625   11.4238 H           1 A02       0.0317
     97 H30         4.6197    7.6146   12.8579 H           1 A02       0.0813
     98 H31         6.1223    7.5204   11.9400 H           1 A02       0.0813
     99 H32         5.1867    5.4044   12.1480 H           1 A02       0.1994
    100 H33         5.0010    5.8298   10.5505 H           1 A02       0.1994
    101 H34         3.7014    5.8985   11.5859 H           1 A02       0.1994
    102 H35        11.7595   14.9269    6.2213 H           1 A02       0.0502
    103 H36        12.8261   14.9544    7.6078 H           1 A02       0.0502
    104 H37        11.1679   14.2765    8.9750 H           1 A02       0.0290
    105 H38        10.9923   12.7531    8.1258 H           1 A02       0.0290
    106 H39         9.6444   15.3009    7.1253 H           1 A02       0.0267
    107 H40         8.9161   14.3330    8.3935 H           1 A02       0.0267
    108 H41         9.3162   13.6417    5.4682 H           1 A02       0.0285
    109 H42         7.8316   13.6799    6.4113 H           1 A02       0.0285
    110 H43        10.0043   11.5382    6.4800 H           1 A02       0.0520
    111 H44         8.3540   11.3978    5.8399 H           1 A02       0.0520
    112 H45         8.5932   12.0171    8.6687 H           1 A02       0.1851
    113 H46        14.6316   13.9634    6.9222 H           1 A02       0.1883
    114 H47        14.5596   11.3269    5.6313 H           1 A02       0.0800
    115 H48        16.0699   12.1275    8.1617 H           1 A02       0.0313
    116 H49        16.3444   10.6379    7.2438 H           1 A02       0.0313
    117 H50        13.9885    9.9164    7.6684 H           1 A02       0.0301
    118 H51        13.6966   11.3902    8.5825 H           1 A02       0.0301
    119 H52        14.2935   10.2434   10.4337 H           1 A02       0.0689
    120 H53        15.9552   10.3797    9.9019 H           1 A02       0.0689
    121 H54        14.1503    8.1985    9.2968 H           1 A02       0.2642
    122 H55        17.6552    7.3345   10.4857 H           1 A02       0.2615
    123 H56        17.3438    8.9157   10.3567 H           1 A02       0.2615
    124 H57        14.7756    6.1922    9.5503 H           1 A02       0.2615
    125 H58        16.2816    5.8745   10.0641 H           1 A02       0.2615
    126 H59        16.6228   14.1113    6.5497 H           1 A02       0.1883
    127 H60        18.8531   13.5607    5.1698 H           1 A02       0.0800
    128 H61        19.3410   15.9390    5.1977 H           1 A02       0.0313
    129 H62        18.6684   15.3855    6.7267 H           1 A02       0.0313
    130 H63        16.3970   16.3714    5.9370 H           1 A02       0.0301
    131 H64        17.2929   17.0955    4.5987 H           1 A02       0.0301
    132 H65        17.2115   18.8248    6.1854 H           1 A02       0.0689
    133 H66        18.8386   18.1533    6.3919 H           1 A02       0.0689
    134 H67        17.0223   16.9225    8.0733 H           1 A02       0.2642
    135 H68        18.5522   20.0868    9.5335 H           1 A02       0.2615
    136 H69        18.6766   19.9084    7.9300 H           1 A02       0.2615
    137 H70        16.9395   17.3169   10.1548 H           1 A02       0.2615
    138 H71        17.5983   18.6785   10.7549 H           1 A02       0.2615
    139 H72        18.5166   14.2408    1.7637 H           1 A02       0.1815
    140 H73        19.5825   13.8833    3.0067 H           1 A02       0.1815
@<TRIPOS>BOND
     1     2     1  ar
     2     6     1  ar
     3     3     2  ar
     4     4     3  ar
     5     4     5  ar
     6    10     4   1
     7     5     6  ar
     8     8     5   1
     9     6     7   1
    10     9     8   2
    11    10     9   1
    12    19    10   1
    13    15    11   2
    14    16    12   1
    15    17    13   1
    16    18    14   1
    17    14    19   1
    18    15    18   1
    19    27    15  am
    20    16    17   1
    21    18    16   1
    22    17    19   1
    23    20    21   2
    24    20    22   1
    25    28    20  am
    26    22    23   1
    27    23    24   1
    28    24    25   1
    29    25    26   1
    30    26    27   1
    31    29    28   1
    32    30    29   1
    33    29    32   1
    34    30    31   2
    35    44    30  am
    36    32    33   1
    37    33    34   1
    38    34    35   1
    39    35    36   1
    40    37    38   2
    41    39    37   1
    42    37    45  am
    43    40    39   1
    44    41    40   1
    45    42    41   1
    46    43    42   1
    47    43    44   1
    48    45    46   1
    49    46    47   1
    50    46    54   1
    51    47    48   1
    52    48    49   1
    53    49    50   1
    54    50    51  ar
    55    51    52  ar
    56    51    53  ar
    57    54    55   2
    58    54    56  am
    59    56    57   1
    60    57    58   1
    61    57    65   1
    62    58    59   1
    63    59    60   1
    64    60    61   1
    65    61    62  ar
    66    62    63  ar
    67    62    64  ar
    68    65    66   2
    69    65    67  am
    70     2    68   1
    71     7    69   1
    72     7    70   1
    73     9    71   1
    74    12    72   1
    75    13    73   1
    76    16    74   1
    77    17    75   1
    78    18    76   1
    79    19    77   1
    80    22    78   1
    81    22    79   1
    82    23    80   1
    83    23    81   1
    84    24    82   1
    85    24    83   1
    86    25    84   1
    87    25    85   1
    88    26    86   1
    89    26    87   1
    90    27    88   1
    91    28    89   1
    92    29    90   1
    93    32    91   1
    94    32    92   1
    95    33    93   1
    96    33    94   1
    97    34    95   1
    98    34    96   1
    99    35    97   1
   100    35    98   1
   101    36    99   1
   102    36   100   1
   103    36   101   1
   104    39   102   1
   105    39   103   1
   106    40   104   1
   107    40   105   1
   108    41   106   1
   109    41   107   1
   110    42   108   1
   111    42   109   1
   112    43   110   1
   113    43   111   1
   114    44   112   1
   115    45   113   1
   116    46   114   1
   117    47   115   1
   118    47   116   1
   119    48   117   1
   120    48   118   1
   121    49   119   1
   122    49   120   1
   123    50   121   1
   124    52   122   1
   125    52   123   1
   126    53   124   1
   127    53   125   1
   128    56   126   1
   129    57   127   1
   130    58   128   1
   131    58   129   1
   132    59   130   1
   133    59   131   1
   134    60   132   1
   135    60   133   1
   136    61   134   1
   137    63   135   1
   138    63   136   1
   139    64   137   1
   140    64   138   1
   141    67   139   1
   142    67   140   1
@<TRIPOS>SUBSTRUCTURE
     1  A02      2

