@<TRIPOS>MOLECULE
3ag9_ligand_091
   140   142
SMALL
GAST_HUCK
****
This file was generated by PARSER (from files_GN.cpp)

@<TRIPOS>ATOM
      1 N1         11.9881    2.5998   13.2694 N.ar        1 A02      -0.2698
      2 C2         11.0763    3.4821   12.7709 C.ar        1 A02       0.0533
      3 N3         11.4386    4.7648   12.5095 N.ar        1 A02      -0.2714
      4 C4         12.7175    5.1729   12.7304 C.ar        1 A02       0.1613
      5 C5         13.6642    4.2835   13.2315 C.ar        1 A02       0.1045
      6 C6         13.2745    2.9611   13.5144 C.ar        1 A02       0.1298
      7 N6         14.1366    2.0748   14.0424 N.pl3       1 A02      -0.3152
      8 N7         14.8271    4.9290   13.3693 N.2         1 A02      -0.2958
      9 C8         14.6056    6.1942   12.9708 C.2         1 A02       0.1123
     10 N9         13.3225    6.3667   12.5783 N.pl3       1 A02      -0.1918
     11 OAL         9.3842    7.1655    9.9997 O.2         1 A02      -0.3941
     12 OAN        12.4407    9.7545    9.2094 O.3         1 A02      -0.3840
     13 OAO        14.1260    9.4756   11.3017 O.3         1 A02      -0.3834
     14 OBV        11.3583    7.4772   11.7868 O.3         1 A02      -0.3181
     15 CCC         9.8436    8.2975   10.0877 C.2         1 A02       0.2080
     16 CCK        12.3091    8.5424    9.9487 C.3         1 A02       0.1295
     17 CCL        13.4560    8.2681   10.9347 C.3         1 A02       0.1408
     18 CCM        11.0597    8.5186   10.8516 C.3         1 A02       0.1788
     19 CCN        12.7449    7.6151   12.1539 C.3         1 A02       0.2035
     20 CBZ         6.3643   13.8725    6.9429 C.2         1 A02       0.1782
     21 OAI         6.3139   14.0816    5.7371 O.2         1 A02      -0.3969
     22 CBG         5.6695   12.7202    7.4938 C.3         1 A02       0.0374
     23 CAX         6.1497   11.3678    6.8905 C.3         1 A02      -0.0360
     24 CAU         5.9173   10.1501    7.8292 C.3         1 A02      -0.0492
     25 CAW         7.0016    9.9798    8.9355 C.3         1 A02      -0.0326
     26 CBD         8.2879    9.2739    8.4361 C.3         1 A02       0.0310
     27 NBR         9.3334    9.3197    9.4122 N.am        1 A02      -0.2847
     28 NBS         7.0495   14.6639    7.7571 N.am        1 A02      -0.2656
     29 CCI         7.8206   15.8326    7.4325 C.3         1 A02       0.1308
     30 CCB         8.9999   15.4347    6.6642 C.2         1 A02       0.2016
     31 OAK         9.1718   15.8254    5.5154 O.2         1 A02      -0.3945
     32 CBJ         6.9022   16.9661    6.8549 C.3         1 A02      -0.0122
     33 CAZ         7.3511   18.4175    7.2068 C.3         1 A02      -0.0440
     34 CAS         6.3568   19.5178    6.7358 C.3         1 A02      -0.0124
     35 CAR         5.0533   19.6443    7.5723 C.3         1 A02      -0.0354
     36 NAC         5.2846   20.2348    8.8996 N.4         1 A02       0.2185
     37 CCA        16.6071   13.3153    5.9121 C.2         1 A02       0.1782
     38 OAJ        17.6390   13.4654    6.5597 O.2         1 A02      -0.3969
     39 CBH        15.5156   12.5488    6.4886 C.3         1 A02       0.0374
     40 CAY        14.1530   13.3023    6.5646 C.3         1 A02      -0.0360
     41 CAT        13.0524   12.4533    7.2577 C.3         1 A02      -0.0492
     42 CAV        11.8017   13.2397    7.7403 C.3         1 A02      -0.0326
     43 CBC        11.0232   14.0175    6.6518 C.3         1 A02       0.0310
     44 NBQ         9.8532   14.5978    7.2371 N.am        1 A02      -0.2851
     45 NBT        16.5101   13.7445    4.6571 N.am        1 A02      -0.2656
     46 CCJ        17.5020   14.3924    3.8413 C.3         1 A02       0.1310
     47 CBK        18.7985   13.5484    3.5967 C.3         1 A02      -0.0092
     48 CBB        18.5333   12.0420    3.2949 C.3         1 A02      -0.0156
     49 CBF        19.7317   11.3145    2.6308 C.3         1 A02       0.0627
     50 NBP        19.9046   11.6454    1.2769 N.pl3       1 A02      -0.2723
     51 CBX        19.1994   11.2641    0.2789 C.cat       1 A02       0.2882
     52 NAB        18.1969   10.4769    0.3519 N.pl3       1 A02      -0.2849
     53 NAE        19.5220   11.6930   -0.8769 N.pl3       1 A02      -0.2849
     54 CCD        17.8005   15.7477    4.3090 C.2         1 A02       0.2039
     55 OAM        18.4103   15.8865    5.3629 O.2         1 A02      -0.3944
     56 N          17.4629   16.8130    3.5888 N.am        1 A02      -0.2637
     57 CA         17.7595   18.1863    3.9083 C.3         1 A02       0.1307
     58 CB         16.7461   18.7663    4.9510 C.3         1 A02      -0.0092
     59 CG         17.2178   20.0834    5.6415 C.3         1 A02      -0.0156
     60 CD         18.2117   19.8867    6.8256 C.3         1 A02       0.0627
     61 NE         17.5618   19.5815    8.0330 N.pl3       1 A02      -0.2723
     62 CZ         17.3365   18.4367    8.5597 C.cat       1 A02       0.2882
     63 NH1        17.7088   17.3125    8.0757 N.pl3       1 A02      -0.2849
     64 NH2        16.6727   18.4076    9.6476 N.pl3       1 A02      -0.2849
     65 C          17.7588   18.9644    2.6714 C.2         1 A02       0.1992
     66 O          16.7642   19.0092    1.9582 O.2         1 A02      -0.3947
     67 NAF        18.8035   19.6630    2.2865 N.am        1 A02      -0.2990
     68 H1         10.1167    3.1793   12.6006 H           1 A02       0.0996
     69 H2         15.0408    2.3475   14.2600 H           1 A02       0.1820
     70 H3         13.8435    1.1700   14.2360 H           1 A02       0.1820
     71 H4         15.3200    6.9234   12.9865 H           1 A02       0.1349
     72 H5         12.2278   10.4705    9.8437 H           1 A02       0.2102
     73 H6         14.8527    9.2085   11.9028 H           1 A02       0.2101
     74 H7         12.2688    7.7167    9.2296 H           1 A02       0.0673
     75 H8         14.1863    7.5978   10.4729 H           1 A02       0.0678
     76 H9         10.9590    9.4543   11.4149 H           1 A02       0.0869
     77 H10        12.7834    8.3009   13.0082 H           1 A02       0.0998
     78 H11         4.5981   12.8376    7.3061 H           1 A02       0.0502
     79 H12         5.7931   12.7015    8.5810 H           1 A02       0.0502
     80 H13         7.2104   11.4218    6.6302 H           1 A02       0.0290
     81 H14         5.6011   11.2023    5.9585 H           1 A02       0.0290
     82 H15         5.8774    9.2398    7.2256 H           1 A02       0.0267
     83 H16         4.9375   10.2561    8.3035 H           1 A02       0.0267
     84 H17         6.5799    9.3771    9.7435 H           1 A02       0.0285
     85 H18         7.2598   10.9543    9.3564 H           1 A02       0.0285
     86 H19         8.6705    9.7740    7.5465 H           1 A02       0.0520
     87 H20         8.0405    8.2473    8.1522 H           1 A02       0.0520
     88 H21         9.7448   10.1872    9.5681 H           1 A02       0.1851
     89 H22         7.0410   14.4282    8.6946 H           1 A02       0.1883
     90 H23         8.1905   16.2036    8.3913 H           1 A02       0.0800
     91 H24         5.8935   16.8262    7.2568 H           1 A02       0.0312
     92 H25         6.8251   16.8644    5.7663 H           1 A02       0.0312
     93 H26         8.3197   18.6003    6.7355 H           1 A02       0.0269
     94 H27         7.4897   18.5063    8.2847 H           1 A02       0.0269
     95 H28         6.0869   19.3260    5.6942 H           1 A02       0.0317
     96 H29         6.8671   20.4809    6.7634 H           1 A02       0.0317
     97 H30         4.5638   18.6783    7.6896 H           1 A02       0.0813
     98 H31         4.3631   20.3040    7.0394 H           1 A02       0.0813
     99 H32         4.3903   20.3340    9.3831 H           1 A02       0.1994
    100 H33         5.7033   21.1551    8.7811 H           1 A02       0.1994
    101 H34         5.9005   19.6481    9.4667 H           1 A02       0.1994
    102 H35        15.7856   12.2297    7.5000 H           1 A02       0.0502
    103 H36        15.3857   11.6442    5.8890 H           1 A02       0.0502
    104 H37        13.8255   13.5525    5.5502 H           1 A02       0.0290
    105 H38        14.2893   14.2417    7.1093 H           1 A02       0.0290
    106 H39        13.4815   11.9747    8.1421 H           1 A02       0.0267
    107 H40        12.7365   11.6589    6.5780 H           1 A02       0.0267
    108 H41        12.1140   13.9478    8.5139 H           1 A02       0.0285
    109 H42        11.1232   12.5213    8.2079 H           1 A02       0.0285
    110 H43        10.7296   13.3388    5.8456 H           1 A02       0.0520
    111 H44        11.6595   14.8061    6.2408 H           1 A02       0.0520
    112 H45         9.6573   14.3392    8.1527 H           1 A02       0.1851
    113 H46        15.6735   13.5363    4.2097 H           1 A02       0.1883
    114 H47        17.0235   14.4766    2.8605 H           1 A02       0.0800
    115 H48        19.4588   13.6075    4.4685 H           1 A02       0.0313
    116 H49        19.3334   13.9947    2.7523 H           1 A02       0.0313
    117 H50        17.6537   11.9456    2.6573 H           1 A02       0.0301
    118 H51        18.3108   11.5370    4.2388 H           1 A02       0.0301
    119 H52        19.6112   10.2316    2.7317 H           1 A02       0.0689
    120 H53        20.6478   11.5808    3.1632 H           1 A02       0.0689
    121 H54        20.6285   12.2086    1.0851 H           1 A02       0.2642
    122 H55        17.7327   10.2388   -0.4234 H           1 A02       0.2615
    123 H56        17.9218   10.1322    1.1779 H           1 A02       0.2615
    124 H57        20.2520   12.2699   -0.9805 H           1 A02       0.2615
    125 H58        19.0318   11.4305   -1.6315 H           1 A02       0.2615
    126 H59        17.0021   16.6458    2.7489 H           1 A02       0.1883
    127 H60        18.7671   18.2248    4.3371 H           1 A02       0.0800
    128 H61        16.5381   18.0198    5.7209 H           1 A02       0.0313
    129 H62        15.7903   18.9639    4.4492 H           1 A02       0.0313
    130 H63        16.3386   20.6199    6.0105 H           1 A02       0.0301
    131 H64        17.6891   20.7282    4.8932 H           1 A02       0.0301
    132 H65        18.7346   20.8332    6.9872 H           1 A02       0.0689
    133 H66        18.9784   19.1493    6.5724 H           1 A02       0.0689
    134 H67        17.2142   20.3139    8.5050 H           1 A02       0.2642
    135 H68        17.4417   16.5180    8.5003 H           1 A02       0.2615
    136 H69        18.2085   17.2760    7.2787 H           1 A02       0.2615
    137 H70        16.3789   19.2130   10.0286 H           1 A02       0.2615
    138 H71        16.4807   17.5855   10.0593 H           1 A02       0.2615
    139 H72        18.7706   20.1784    1.4644 H           1 A02       0.1815
    140 H73        19.6036   19.6848    2.8330 H           1 A02       0.1815
@<TRIPOS>BOND
     1     2     1  ar
     2     6     1  ar
     3     3     2  ar
     4     4     3  ar
     5     4     5  ar
     6    10     4   1
     7     5     6  ar
     8     8     5   1
     9     6     7   1
    10     9     8   2
    11    10     9   1
    12    19    10   1
    13    15    11   2
    14    16    12   1
    15    17    13   1
    16    18    14   1
    17    14    19   1
    18    15    18   1
    19    27    15  am
    20    16    17   1
    21    18    16   1
    22    17    19   1
    23    20    21   2
    24    20    22   1
    25    28    20  am
    26    22    23   1
    27    23    24   1
    28    24    25   1
    29    25    26   1
    30    26    27   1
    31    29    28   1
    32    30    29   1
    33    29    32   1
    34    30    31   2
    35    44    30  am
    36    32    33   1
    37    33    34   1
    38    34    35   1
    39    35    36   1
    40    37    38   2
    41    39    37   1
    42    37    45  am
    43    40    39   1
    44    41    40   1
    45    42    41   1
    46    43    42   1
    47    43    44   1
    48    45    46   1
    49    46    47   1
    50    46    54   1
    51    47    48   1
    52    48    49   1
    53    49    50   1
    54    50    51  ar
    55    51    52  ar
    56    51    53  ar
    57    54    55   2
    58    54    56  am
    59    56    57   1
    60    57    58   1
    61    57    65   1
    62    58    59   1
    63    59    60   1
    64    60    61   1
    65    61    62  ar
    66    62    63  ar
    67    62    64  ar
    68    65    66   2
    69    65    67  am
    70     2    68   1
    71     7    69   1
    72     7    70   1
    73     9    71   1
    74    12    72   1
    75    13    73   1
    76    16    74   1
    77    17    75   1
    78    18    76   1
    79    19    77   1
    80    22    78   1
    81    22    79   1
    82    23    80   1
    83    23    81   1
    84    24    82   1
    85    24    83   1
    86    25    84   1
    87    25    85   1
    88    26    86   1
    89    26    87   1
    90    27    88   1
    91    28    89   1
    92    29    90   1
    93    32    91   1
    94    32    92   1
    95    33    93   1
    96    33    94   1
    97    34    95   1
    98    34    96   1
    99    35    97   1
   100    35    98   1
   101    36    99   1
   102    36   100   1
   103    36   101   1
   104    39   102   1
   105    39   103   1
   106    40   104   1
   107    40   105   1
   108    41   106   1
   109    41   107   1
   110    42   108   1
   111    42   109   1
   112    43   110   1
   113    43   111   1
   114    44   112   1
   115    45   113   1
   116    46   114   1
   117    47   115   1
   118    47   116   1
   119    48   117   1
   120    48   118   1
   121    49   119   1
   122    49   120   1
   123    50   121   1
   124    52   122   1
   125    52   123   1
   126    53   124   1
   127    53   125   1
   128    56   126   1
   129    57   127   1
   130    58   128   1
   131    58   129   1
   132    59   130   1
   133    59   131   1
   134    60   132   1
   135    60   133   1
   136    61   134   1
   137    63   135   1
   138    63   136   1
   139    64   137   1
   140    64   138   1
   141    67   139   1
   142    67   140   1
@<TRIPOS>SUBSTRUCTURE
     1  A02      2

