@<TRIPOS>MOLECULE
3ag9_ligand_059
   140   142
SMALL
GAST_HUCK
****
This file was generated by PARSER (from files_GN.cpp)

@<TRIPOS>ATOM
      1 N1         -4.3770   12.6329   17.4129 N.ar        1 A02      -0.2698
      2 C2         -3.9615   11.5714   18.1554 C.ar        1 A02       0.0533
      3 N3         -2.9307   10.7921   17.7231 N.ar        1 A02      -0.2714
      4 C4         -2.3179   11.0742   16.5446 C.ar        1 A02       0.1613
      5 C5         -2.7361   12.1524   15.7679 C.ar        1 A02       0.1045
      6 C6         -3.7963   12.9519   16.2221 C.ar        1 A02       0.1298
      7 N6         -4.2281   14.0125   15.5196 N.pl3       1 A02      -0.3152
      8 N7         -1.9787   12.2043   14.6648 N.2         1 A02      -0.2958
      9 C8         -1.1082   11.1798   14.7581 C.2         1 A02       0.1123
     10 N9         -1.2977   10.4769   15.8998 N.pl3       1 A02      -0.1918
     11 OAL         0.3815    6.0334   13.5711 O.2         1 A02      -0.3941
     12 OAN        -1.0920    5.6940   16.4687 O.3         1 A02      -0.3840
     13 OAO        -1.3410    7.8372   18.1581 O.3         1 A02      -0.3834
     14 OBV         0.3036    8.8219   15.3140 O.3         1 A02      -0.3181
     15 CCC         1.0005    6.8224   14.2764 C.2         1 A02       0.2080
     16 CCK        -1.0309    6.9825   15.8533 C.3         1 A02       0.1295
     17 CCL        -1.4825    8.1394   16.7677 C.3         1 A02       0.1408
     18 CCM         0.4053    7.4004   15.4674 C.3         1 A02       0.1788
     19 CCN        -0.5653    9.3202   16.3452 C.3         1 A02       0.2035
     20 CBZ         7.5283    8.1315   14.0358 C.2         1 A02       0.1782
     21 OAI         7.6473    7.0084   13.5540 O.2         1 A02      -0.3969
     22 CBG         6.8323    8.2749   15.3079 C.3         1 A02       0.0374
     23 CAX         5.2998    8.0144   15.2602 C.3         1 A02      -0.0360
     24 CAU         4.8724    6.5494   14.9267 C.3         1 A02      -0.0492
     25 CAW         4.5075    6.2619   13.4411 C.3         1 A02      -0.0326
     26 CBD         3.1051    6.7267   12.9492 C.3         1 A02       0.0310
     27 NBR         2.2610    7.1619   14.0156 N.am        1 A02      -0.2847
     28 NBS         8.1438    9.1904   13.5177 N.am        1 A02      -0.2656
     29 CCI         9.0086    9.3164   12.3680 C.3         1 A02       0.1308
     30 CCB        10.2685    8.5678   12.4348 C.2         1 A02       0.2016
     31 OAK        10.3609    7.5729   13.1517 O.2         1 A02      -0.3945
     32 CBJ         8.2480    9.2092   11.0030 C.3         1 A02      -0.0122
     33 CAZ         8.3110    7.8461   10.2570 C.3         1 A02      -0.0440
     34 CAS         7.5512    7.8110    8.9043 C.3         1 A02      -0.0124
     35 CAR         6.0795    8.2959    8.9871 C.3         1 A02      -0.0354
     36 NAC         5.2499    7.6432    7.9640 N.4         1 A02       0.2185
     37 CCA        15.4807    5.2555    9.8923 C.2         1 A02       0.1782
     38 OAJ        15.0714    4.9599   11.0091 O.2         1 A02      -0.3969
     39 CBH        15.3103    6.6305    9.4460 C.3         1 A02       0.0374
     40 CAY        13.8204    6.9977    9.1582 C.3         1 A02      -0.0360
     41 CAT        13.4579    8.5001    9.3461 C.3         1 A02      -0.0492
     42 CAV        13.6018    9.0864   10.7826 C.3         1 A02      -0.0326
     43 CBC        12.6573    8.4924   11.8645 C.3         1 A02       0.0310
     44 NBQ        11.3310    9.0219   11.7757 N.am        1 A02      -0.2851
     45 NBT        16.1089    4.3615    9.1325 N.am        1 A02      -0.2656
     46 CCJ        16.3378    2.9627    9.4181 C.3         1 A02       0.1310
     47 CBK        17.8745    2.6956    9.3508 C.3         1 A02      -0.0092
     48 CBB        18.3322    1.2590    8.9478 C.3         1 A02      -0.0156
     49 CBF        19.7507    0.8460    9.4309 C.3         1 A02       0.0627
     50 NBP        20.7755    1.7032    9.0053 N.pl3       1 A02      -0.2723
     51 CBX        21.8043    1.4512    8.2886 C.cat       1 A02       0.2882
     52 NAB        22.0911    0.3244    7.7483 N.pl3       1 A02      -0.2849
     53 NAE        22.6431    2.4004    8.0818 N.pl3       1 A02      -0.2849
     54 CCD        15.5374    2.0860    8.5575 C.2         1 A02       0.2039
     55 OAM        15.4627    0.9024    8.8705 O.2         1 A02      -0.3944
     56 N          14.8667    2.5532    7.5030 N.am        1 A02      -0.2637
     57 CA         14.0677    1.8191    6.5593 C.3         1 A02       0.1307
     58 CB         12.7546    1.1830    7.1330 C.3         1 A02      -0.0092
     59 CG         12.0192    1.9698    8.2568 C.3         1 A02      -0.0156
     60 CD         11.6685    3.4435    7.9280 C.3         1 A02       0.0627
     61 NE         10.5208    3.9031    8.5710 N.pl3       1 A02      -0.2723
     62 CZ         10.3092    4.0650    9.8279 C.cat       1 A02       0.2882
     63 NH1         9.1440    4.4434   10.1924 N.pl3       1 A02      -0.2849
     64 NH2        11.1810    3.8687   10.7463 N.pl3       1 A02      -0.2849
     65 C          14.8899    0.8502    5.8359 C.2         1 A02       0.1992
     66 O          15.1283    1.0008    4.6458 O.2         1 A02      -0.3947
     67 NAF        15.4481   -0.1828    6.4319 N.am        1 A02      -0.2990
     68 H1         -4.4235   11.3606   19.0413 H           1 A02       0.0996
     69 H2         -3.8091   14.2384   14.6734 H           1 A02       0.1820
     70 H3         -4.9558   14.5566   15.8589 H           1 A02       0.1820
     71 H4         -0.4089   10.9727   14.0441 H           1 A02       0.1349
     72 H5         -0.1647    5.3689   16.4936 H           1 A02       0.2102
     73 H6         -0.3976    7.6028   18.2900 H           1 A02       0.2101
     74 H7         -1.6716    6.9709   14.9676 H           1 A02       0.0673
     75 H8         -2.5376    8.3648   16.5870 H           1 A02       0.0678
     76 H9          1.0719    7.1867   16.3151 H           1 A02       0.0869
     77 H10         0.0815    9.6230   17.1766 H           1 A02       0.0998
     78 H11         6.9688    9.2958   15.6883 H           1 A02       0.0502
     79 H12         7.2921    7.6080   16.0464 H           1 A02       0.0502
     80 H13         4.8371    8.7257   14.5647 H           1 A02       0.0290
     81 H14         4.9070    8.2491   16.2559 H           1 A02       0.0290
     82 H15         4.0061    6.2812   15.5425 H           1 A02       0.0267
     83 H16         5.6720    5.8580   15.2169 H           1 A02       0.0267
     84 H17         4.5621    5.1774   13.3006 H           1 A02       0.0285
     85 H18         5.2711    6.7063   12.7920 H           1 A02       0.0285
     86 H19         2.6422    5.9222   12.3692 H           1 A02       0.0520
     87 H20         3.2260    7.5803   12.2788 H           1 A02       0.0520
     88 H21         2.6673    7.7653   14.6557 H           1 A02       0.1851
     89 H22         8.0157   10.0217   14.0085 H           1 A02       0.1883
     90 H23         9.3129   10.3679   12.4299 H           1 A02       0.0800
     91 H24         8.6532    9.9710   10.3253 H           1 A02       0.0312
     92 H25         7.2020    9.4696   11.1839 H           1 A02       0.0312
     93 H26         7.9058    7.0539   10.8828 H           1 A02       0.0269
     94 H27         9.3604    7.6094   10.0590 H           1 A02       0.0269
     95 H28         7.5508    6.7762    8.5500 H           1 A02       0.0317
     96 H29         8.0880    8.4157    8.1669 H           1 A02       0.0317
     97 H30         6.0202    9.3739    8.8375 H           1 A02       0.0813
     98 H31         5.6528    8.0512    9.9629 H           1 A02       0.0813
     99 H32         4.3027    8.0299    7.9860 H           1 A02       0.1994
    100 H33         5.2111    6.6433    8.1693 H           1 A02       0.1994
    101 H34         5.6553    7.7929    7.0362 H           1 A02       0.1994
    102 H35        15.8865    6.8149    8.5316 H           1 A02       0.0502
    103 H36        15.7298    7.2758   10.2212 H           1 A02       0.0502
    104 H37        13.1460    6.3983    9.7808 H           1 A02       0.0290
    105 H38        13.6013    6.7288    8.1183 H           1 A02       0.0290
    106 H39        12.4214    8.6482    9.0212 H           1 A02       0.0267
    107 H40        14.0905    9.0920    8.6726 H           1 A02       0.0267
    108 H41        13.4295   10.1688   10.7309 H           1 A02       0.0285
    109 H42        14.6324    8.9565   11.1191 H           1 A02       0.0285
    110 H43        13.0579    8.7379   12.8564 H           1 A02       0.0520
    111 H44        12.6331    7.3997   11.7845 H           1 A02       0.0520
    112 H45        11.2159    9.8366   11.2560 H           1 A02       0.1851
    113 H46        16.3997    4.6758    8.2557 H           1 A02       0.1883
    114 H47        16.0246    2.7614   10.4524 H           1 A02       0.0800
    115 H48        18.2852    2.9240   10.3414 H           1 A02       0.0313
    116 H49        18.3365    3.4012    8.6448 H           1 A02       0.0313
    117 H50        18.2979    1.1765    7.8595 H           1 A02       0.0301
    118 H51        17.6196    0.5299    9.3476 H           1 A02       0.0301
    119 H52        19.9180   -0.1896    9.1268 H           1 A02       0.0689
    120 H53        19.7631    0.8697   10.5231 H           1 A02       0.0689
    121 H54        20.7106    2.5856    9.3193 H           1 A02       0.2642
    122 H55        22.8728    0.2485    7.2380 H           1 A02       0.2615
    123 H56        21.5329   -0.4138    7.8653 H           1 A02       0.2615
    124 H57        22.4922    3.2463    8.4417 H           1 A02       0.2615
    125 H58        23.4053    2.2421    7.5713 H           1 A02       0.2615
    126 H59        14.9486    3.5057    7.3248 H           1 A02       0.1883
    127 H60        13.7383    2.5791    5.8404 H           1 A02       0.0800
    128 H61        12.9654    0.1821    7.5222 H           1 A02       0.0313
    129 H62        12.0477    1.0574    6.3057 H           1 A02       0.0313
    130 H63        12.6277    1.9354    9.1621 H           1 A02       0.0301
    131 H64        11.0907    1.4316    8.4731 H           1 A02       0.0301
    132 H65        11.4839    3.5278    6.8509 H           1 A02       0.0689
    133 H66        12.5167    4.0978    8.1660 H           1 A02       0.0689
    134 H67         9.7976    4.1090    8.0167 H           1 A02       0.2642
    135 H68         8.9554    4.5658   11.0996 H           1 A02       0.2615
    136 H69         8.4815    4.5924    9.5472 H           1 A02       0.2615
    137 H70        12.0433    3.6001   10.5314 H           1 A02       0.2615
    138 H71        10.9503    4.0031   11.6426 H           1 A02       0.2615
    139 H72        16.0168   -0.7867    5.9118 H           1 A02       0.1815
    140 H73        15.2899   -0.3376    7.3864 H           1 A02       0.1815
@<TRIPOS>BOND
     1     2     1  ar
     2     6     1  ar
     3     3     2  ar
     4     4     3  ar
     5     4     5  ar
     6    10     4   1
     7     5     6  ar
     8     8     5   1
     9     6     7   1
    10     9     8   2
    11    10     9   1
    12    19    10   1
    13    15    11   2
    14    16    12   1
    15    17    13   1
    16    18    14   1
    17    14    19   1
    18    15    18   1
    19    27    15  am
    20    16    17   1
    21    18    16   1
    22    17    19   1
    23    20    21   2
    24    20    22   1
    25    28    20  am
    26    22    23   1
    27    23    24   1
    28    24    25   1
    29    25    26   1
    30    26    27   1
    31    29    28   1
    32    30    29   1
    33    29    32   1
    34    30    31   2
    35    44    30  am
    36    32    33   1
    37    33    34   1
    38    34    35   1
    39    35    36   1
    40    37    38   2
    41    39    37   1
    42    37    45  am
    43    40    39   1
    44    41    40   1
    45    42    41   1
    46    43    42   1
    47    43    44   1
    48    45    46   1
    49    46    47   1
    50    46    54   1
    51    47    48   1
    52    48    49   1
    53    49    50   1
    54    50    51  ar
    55    51    52  ar
    56    51    53  ar
    57    54    55   2
    58    54    56  am
    59    56    57   1
    60    57    58   1
    61    57    65   1
    62    58    59   1
    63    59    60   1
    64    60    61   1
    65    61    62  ar
    66    62    63  ar
    67    62    64  ar
    68    65    66   2
    69    65    67  am
    70     2    68   1
    71     7    69   1
    72     7    70   1
    73     9    71   1
    74    12    72   1
    75    13    73   1
    76    16    74   1
    77    17    75   1
    78    18    76   1
    79    19    77   1
    80    22    78   1
    81    22    79   1
    82    23    80   1
    83    23    81   1
    84    24    82   1
    85    24    83   1
    86    25    84   1
    87    25    85   1
    88    26    86   1
    89    26    87   1
    90    27    88   1
    91    28    89   1
    92    29    90   1
    93    32    91   1
    94    32    92   1
    95    33    93   1
    96    33    94   1
    97    34    95   1
    98    34    96   1
    99    35    97   1
   100    35    98   1
   101    36    99   1
   102    36   100   1
   103    36   101   1
   104    39   102   1
   105    39   103   1
   106    40   104   1
   107    40   105   1
   108    41   106   1
   109    41   107   1
   110    42   108   1
   111    42   109   1
   112    43   110   1
   113    43   111   1
   114    44   112   1
   115    45   113   1
   116    46   114   1
   117    47   115   1
   118    47   116   1
   119    48   117   1
   120    48   118   1
   121    49   119   1
   122    49   120   1
   123    50   121   1
   124    52   122   1
   125    52   123   1
   126    53   124   1
   127    53   125   1
   128    56   126   1
   129    57   127   1
   130    58   128   1
   131    58   129   1
   132    59   130   1
   133    59   131   1
   134    60   132   1
   135    60   133   1
   136    61   134   1
   137    63   135   1
   138    63   136   1
   139    64   137   1
   140    64   138   1
   141    67   139   1
   142    67   140   1
@<TRIPOS>SUBSTRUCTURE
     1  A02      2

