@<TRIPOS>MOLECULE
3ag9_ligand_056
   140   142
SMALL
GAST_HUCK
****
This file was generated by PARSER (from files_GN.cpp)

@<TRIPOS>ATOM
      1 N1         18.9331   -0.8192    9.9655 N.ar        1 A02      -0.2698
      2 C2         17.7533   -0.2946    9.5273 C.ar        1 A02       0.0533
      3 N3         17.7374    0.8760    8.8332 N.ar        1 A02      -0.2714
      4 C4         18.9037    1.5237    8.5780 C.ar        1 A02       0.1613
      5 C5         20.1239    1.0012    9.0061 C.ar        1 A02       0.1045
      6 C6         20.1239   -0.2077    9.7241 C.ar        1 A02       0.1298
      7 N6         21.2646   -0.7619   10.1714 N.pl3       1 A02      -0.3152
      8 N7         21.1048    1.8306    8.6127 N.2         1 A02      -0.2958
      9 C8         20.5005    2.8368    7.9561 C.2         1 A02       0.1123
     10 N9         19.1578    2.6757    7.9295 N.pl3       1 A02      -0.1918
     11 OAL        15.3111    1.5577    6.9623 O.2         1 A02      -0.3941
     12 OAN        16.7366    5.2543    5.1762 O.3         1 A02      -0.3840
     13 OAO        19.0106    3.7275    4.9863 O.3         1 A02      -0.3834
     14 OBV        16.9210    3.5095    7.9411 O.3         1 A02      -0.3181
     15 CCC        14.9179    2.7154    7.0446 C.2         1 A02       0.2080
     16 CCK        16.5990    3.8913    5.5789 C.3         1 A02       0.1295
     17 CCL        17.9679    3.2387    5.8295 C.3         1 A02       0.1408
     18 CCM        15.9050    3.7817    6.9665 C.3         1 A02       0.1788
     19 CCN        18.2111    3.5665    7.3127 C.3         1 A02       0.2035
     20 CBZ         9.8426    5.4927   11.1642 C.2         1 A02       0.1782
     21 OAI         9.9128    6.3143   10.2566 O.2         1 A02      -0.3969
     22 CBG         9.5345    4.0983   10.8652 C.3         1 A02       0.0374
     23 CAX         9.6376    3.6818    9.3732 C.3         1 A02      -0.0360
     24 CAU        11.0972    3.4857    8.8790 C.3         1 A02      -0.0492
     25 CAW        11.2005    2.5726    7.6281 C.3         1 A02      -0.0326
     26 CBD        12.6132    1.9922    7.3761 C.3         1 A02       0.0310
     27 NBR        13.6361    2.9795    7.2697 N.am        1 A02      -0.2847
     28 NBS         9.9384    5.8531   12.4377 N.am        1 A02      -0.2656
     29 CCI        10.2150    7.1538   12.9847 C.3         1 A02       0.1308
     30 CCB        11.5610    7.6148   12.6478 C.2         1 A02       0.2016
     31 OAK        12.3981    7.6667   13.5409 O.2         1 A02      -0.3945
     32 CBJ         9.1115    8.2219   12.7142 C.3         1 A02      -0.0122
     33 CAZ         7.6369    7.8043   12.9303 C.3         1 A02      -0.0440
     34 CAS         7.3411    6.9051   14.1630 C.3         1 A02      -0.0124
     35 CAR         5.8393    6.8784   14.5565 C.3         1 A02      -0.0354
     36 NAC         5.4925    7.9854   15.4585 N.4         1 A02       0.2185
     37 CCA        15.2835   12.0334    6.1360 C.2         1 A02       0.1782
     38 OAJ        15.2451   11.4136    5.0820 O.2         1 A02      -0.3969
     39 CBH        15.5368   11.3089    7.3765 C.3         1 A02       0.0374
     40 CAY        14.2001   10.7864    7.9806 C.3         1 A02      -0.0360
     41 CAT        14.4037    9.8035    9.1666 C.3         1 A02      -0.0492
     42 CAV        13.0422    9.3819    9.7888 C.3         1 A02      -0.0326
     43 CBC        13.1878    8.4102   10.9774 C.3         1 A02       0.0310
     44 NBQ        11.8901    7.9789   11.4143 N.am        1 A02      -0.2851
     45 NBT        14.9369   13.3140    6.1914 N.am        1 A02      -0.2656
     46 CCJ        14.4006   14.1253    5.1370 C.3         1 A02       0.1310
     47 CBK        13.2246   13.3744    4.4038 C.3         1 A02      -0.0092
     48 CBB        11.8733   14.1651    4.3412 C.3         1 A02      -0.0156
     49 CBF        11.2163   14.4485    5.7251 C.3         1 A02       0.0627
     50 NBP        10.8122   13.2623    6.3610 N.pl3       1 A02      -0.2723
     51 CBX        11.0656   12.8630    7.5520 C.cat       1 A02       0.2882
     52 NAB        11.7721   13.5023    8.4091 N.pl3       1 A02      -0.2849
     53 NAE        10.5748   11.7421    7.9172 N.pl3       1 A02      -0.2849
     54 CCD        15.4825   14.6685    4.3107 C.2         1 A02       0.2039
     55 OAM        15.4988   14.5011    3.0949 O.2         1 A02      -0.3944
     56 N          16.4412   15.3560    4.9148 N.am        1 A02      -0.2637
     57 CA         17.5907   15.9529    4.2955 C.3         1 A02       0.1307
     58 CB         18.7893   15.9052    5.2901 C.3         1 A02      -0.0092
     59 CG         18.7662   17.0051    6.4058 C.3         1 A02      -0.0156
     60 CD         19.1440   16.4851    7.8293 C.3         1 A02       0.0627
     61 NE         18.2156   16.9167    8.7742 N.pl3       1 A02      -0.2723
     62 CZ         18.1470   18.0538    9.3579 C.cat       1 A02       0.2882
     63 NH1        18.9678   19.0265    9.2303 N.pl3       1 A02      -0.2849
     64 NH2        17.1384   18.2306   10.1289 N.pl3       1 A02      -0.2849
     65 C          17.3675   17.3006    3.7913 C.2         1 A02       0.1992
     66 O          18.0233   17.7270    2.8534 O.2         1 A02      -0.3947
     67 NAF        16.4934   18.1230    4.3428 N.am        1 A02      -0.2990
     68 H1         16.8781   -0.7747    9.7258 H           1 A02       0.0996
     69 H2         22.1199   -0.3327   10.0028 H           1 A02       0.1820
     70 H3         21.2350   -1.5975   10.6651 H           1 A02       0.1820
     71 H4         21.0062    3.6271    7.5405 H           1 A02       0.1349
     72 H5         17.2059    5.7069    5.9076 H           1 A02       0.2102
     73 H6         18.8269    3.3357    4.1076 H           1 A02       0.2101
     74 H7         16.0613    3.3653    4.7899 H           1 A02       0.0673
     75 H8         17.8864    2.1536    5.7000 H           1 A02       0.0678
     76 H9         15.4465    4.7397    7.2272 H           1 A02       0.0869
     77 H10        18.5713    4.5972    7.4179 H           1 A02       0.0998
     78 H11         8.5130    3.9017   11.2164 H           1 A02       0.0502
     79 H12        10.1993    3.4441   11.4418 H           1 A02       0.0502
     80 H13         9.1334    4.4330    8.7498 H           1 A02       0.0290
     81 H14         9.1045    2.7317    9.2477 H           1 A02       0.0290
     82 H15        11.6751    3.0342    9.6980 H           1 A02       0.0267
     83 H16        11.5527    4.4576    8.6528 H           1 A02       0.0267
     84 H17        10.8822    3.1450    6.7457 H           1 A02       0.0285
     85 H18        10.5129    1.7288    7.7334 H           1 A02       0.0285
     86 H19        12.5836    1.4194    6.4475 H           1 A02       0.0520
     87 H20        12.8582    1.2966    8.1875 H           1 A02       0.0520
     88 H21        13.3787    3.9119    7.3730 H           1 A02       0.1851
     89 H22         9.8125    5.1440   13.0861 H           1 A02       0.1883
     90 H23        10.1813    6.9880   14.0688 H           1 A02       0.0800
     91 H24         9.1788    8.5814   11.6869 H           1 A02       0.0312
     92 H25         9.3069    9.0855   13.3603 H           1 A02       0.0312
     93 H26         7.2573    7.2874   12.0382 H           1 A02       0.0269
     94 H27         7.0448    8.7230   13.0272 H           1 A02       0.0269
     95 H28         7.9316    7.2323   15.0321 H           1 A02       0.0317
     96 H29         7.6459    5.8764   13.9358 H           1 A02       0.0317
     97 H30         5.5874    5.9405   15.0662 H           1 A02       0.0813
     98 H31         5.2018    6.9599   13.6625 H           1 A02       0.0813
     99 H32         4.4792    8.0135   15.6035 H           1 A02       0.1994
    100 H33         5.8047    8.8783   15.0670 H           1 A02       0.1994
    101 H34         5.9544    7.8180   16.3644 H           1 A02       0.1994
    102 H35        16.0265   11.9735    8.0996 H           1 A02       0.0502
    103 H36        16.2018   10.4511    7.1889 H           1 A02       0.0502
    104 H37        13.6250   10.2763    7.1973 H           1 A02       0.0290
    105 H38        13.6177   11.6434    8.3398 H           1 A02       0.0290
    106 H39        15.0164   10.2880    9.9314 H           1 A02       0.0267
    107 H40        14.9317    8.9104    8.8223 H           1 A02       0.0267
    108 H41        12.4287    8.9164    9.0115 H           1 A02       0.0285
    109 H42        12.5154   10.2777   10.1407 H           1 A02       0.0285
    110 H43        13.7053    8.9173   11.7915 H           1 A02       0.0520
    111 H44        13.7772    7.5383   10.6762 H           1 A02       0.0520
    112 H45        11.1881    7.9590   10.7453 H           1 A02       0.1851
    113 H46        15.0564   13.7512    7.0535 H           1 A02       0.1883
    114 H47        13.9809   14.9855    5.6642 H           1 A02       0.0800
    115 H48        13.0310   12.4159    4.9038 H           1 A02       0.0313
    116 H49        13.5174   13.1338    3.3722 H           1 A02       0.0313
    117 H50        11.1699   13.5770    3.7395 H           1 A02       0.0301
    118 H51        12.0463   15.1179    3.8292 H           1 A02       0.0301
    119 H52        10.3056   15.0340    5.5532 H           1 A02       0.0689
    120 H53        11.9063   15.0584    6.3270 H           1 A02       0.0689
    121 H54        10.2903   12.6761    5.8447 H           1 A02       0.2642
    122 H55        11.9010   13.1465    9.2669 H           1 A02       0.2615
    123 H56        12.1622   14.3146    8.1941 H           1 A02       0.2615
    124 H57        10.0557   11.2436    7.3246 H           1 A02       0.2615
    125 H58        10.7161   11.4259    8.7883 H           1 A02       0.2615
    126 H59        16.3639   15.4398    5.8907 H           1 A02       0.1883
    127 H60        17.8767   15.3216    3.4432 H           1 A02       0.0800
    128 H61        19.7395   15.9819    4.7499 H           1 A02       0.0313
    129 H62        18.7761   14.9070    5.7554 H           1 A02       0.0313
    130 H63        17.7661   17.4561    6.4648 H           1 A02       0.0301
    131 H64        19.4606   17.8107    6.1378 H           1 A02       0.0301
    132 H65        20.1626   16.7865    8.1107 H           1 A02       0.0689
    133 H66        19.0917   15.3908    7.8542 H           1 A02       0.0689
    134 H67        17.5283   16.3153    8.9780 H           1 A02       0.2642
    135 H68        18.8224   19.8128    9.7149 H           1 A02       0.2615
    136 H69        19.7116   18.9525    8.6665 H           1 A02       0.2615
    137 H70        16.5142   17.5365   10.2252 H           1 A02       0.2615
    138 H71        17.0385   19.0381   10.5796 H           1 A02       0.2615
    139 H72        16.3746   19.0139    3.9831 H           1 A02       0.1815
    140 H73        15.9637   17.8463    5.0991 H           1 A02       0.1815
@<TRIPOS>BOND
     1     2     1  ar
     2     6     1  ar
     3     3     2  ar
     4     4     3  ar
     5     4     5  ar
     6    10     4   1
     7     5     6  ar
     8     8     5   1
     9     6     7   1
    10     9     8   2
    11    10     9   1
    12    19    10   1
    13    15    11   2
    14    16    12   1
    15    17    13   1
    16    18    14   1
    17    14    19   1
    18    15    18   1
    19    27    15  am
    20    16    17   1
    21    18    16   1
    22    17    19   1
    23    20    21   2
    24    20    22   1
    25    28    20  am
    26    22    23   1
    27    23    24   1
    28    24    25   1
    29    25    26   1
    30    26    27   1
    31    29    28   1
    32    30    29   1
    33    29    32   1
    34    30    31   2
    35    44    30  am
    36    32    33   1
    37    33    34   1
    38    34    35   1
    39    35    36   1
    40    37    38   2
    41    39    37   1
    42    37    45  am
    43    40    39   1
    44    41    40   1
    45    42    41   1
    46    43    42   1
    47    43    44   1
    48    45    46   1
    49    46    47   1
    50    46    54   1
    51    47    48   1
    52    48    49   1
    53    49    50   1
    54    50    51  ar
    55    51    52  ar
    56    51    53  ar
    57    54    55   2
    58    54    56  am
    59    56    57   1
    60    57    58   1
    61    57    65   1
    62    58    59   1
    63    59    60   1
    64    60    61   1
    65    61    62  ar
    66    62    63  ar
    67    62    64  ar
    68    65    66   2
    69    65    67  am
    70     2    68   1
    71     7    69   1
    72     7    70   1
    73     9    71   1
    74    12    72   1
    75    13    73   1
    76    16    74   1
    77    17    75   1
    78    18    76   1
    79    19    77   1
    80    22    78   1
    81    22    79   1
    82    23    80   1
    83    23    81   1
    84    24    82   1
    85    24    83   1
    86    25    84   1
    87    25    85   1
    88    26    86   1
    89    26    87   1
    90    27    88   1
    91    28    89   1
    92    29    90   1
    93    32    91   1
    94    32    92   1
    95    33    93   1
    96    33    94   1
    97    34    95   1
    98    34    96   1
    99    35    97   1
   100    35    98   1
   101    36    99   1
   102    36   100   1
   103    36   101   1
   104    39   102   1
   105    39   103   1
   106    40   104   1
   107    40   105   1
   108    41   106   1
   109    41   107   1
   110    42   108   1
   111    42   109   1
   112    43   110   1
   113    43   111   1
   114    44   112   1
   115    45   113   1
   116    46   114   1
   117    47   115   1
   118    47   116   1
   119    48   117   1
   120    48   118   1
   121    49   119   1
   122    49   120   1
   123    50   121   1
   124    52   122   1
   125    52   123   1
   126    53   124   1
   127    53   125   1
   128    56   126   1
   129    57   127   1
   130    58   128   1
   131    58   129   1
   132    59   130   1
   133    59   131   1
   134    60   132   1
   135    60   133   1
   136    61   134   1
   137    63   135   1
   138    63   136   1
   139    64   137   1
   140    64   138   1
   141    67   139   1
   142    67   140   1
@<TRIPOS>SUBSTRUCTURE
     1  A02      2

