@<TRIPOS>MOLECULE
3ag9_ligand_012
   140   142
SMALL
GAST_HUCK
****
This file was generated by PARSER (from files_GN.cpp)

@<TRIPOS>ATOM
      1 N1          1.7260    9.6832   15.6250 N.ar        1 A02      -0.2698
      2 C2          2.5876   10.4758   14.9290 C.ar        1 A02       0.0533
      3 N3          3.5764    9.9169   14.1780 N.ar        1 A02      -0.2714
      4 C4          3.7057    8.5660   14.1221 C.ar        1 A02       0.1613
      5 C5          2.8328    7.7395   14.8244 C.ar        1 A02       0.1045
      6 C6          1.8129    8.3250   15.5979 C.ar        1 A02       0.1298
      7 N6          0.9515    7.5841   16.3151 N.pl3       1 A02      -0.3152
      8 N7          3.1791    6.4663   14.6011 N.2         1 A02      -0.2958
      9 C8          4.2443    6.5043   13.7808 C.2         1 A02       0.1123
     10 N9          4.5881    7.7778   13.4790 N.pl3       1 A02      -0.1918
     11 OAL         9.4827    6.0223   12.5692 O.2         1 A02      -0.3941
     12 OAN         9.1700    9.2159   12.9716 O.3         1 A02      -0.3840
     13 OAO         6.7518   10.4318   12.8105 O.3         1 A02      -0.3834
     14 OBV         6.3937    7.1146   12.0614 O.3         1 A02      -0.3181
     15 CCC         8.5753    6.2685   11.7828 C.2         1 A02       0.2080
     16 CCK         8.0419    8.3608   13.1671 C.3         1 A02       0.1295
     17 CCL         6.7094    9.1107   13.3581 C.3         1 A02       0.1408
     18 CCM         7.7741    7.4784   11.9279 C.3         1 A02       0.1788
     19 CCN         5.6649    8.2191   12.6299 C.3         1 A02       0.2035
     20 CBZ        12.2368    7.4815    7.7082 C.2         1 A02       0.1782
     21 OAI        11.2763    8.1283    7.3004 O.2         1 A02      -0.3969
     22 CBG        12.0642    6.0723    8.0114 C.3         1 A02       0.0374
     23 CAX        11.6982    5.8295    9.5060 C.3         1 A02      -0.0360
     24 CAU        11.2970    4.3618    9.8191 C.3         1 A02      -0.0492
     25 CAW         9.8287    3.9740    9.4568 C.3         1 A02      -0.0326
     26 CBD         8.8138    4.0963   10.6248 C.3         1 A02       0.0310
     27 NBR         8.2924    5.4225   10.7985 N.am        1 A02      -0.2847
     28 NBS        13.4333    8.0430    7.8705 N.am        1 A02      -0.2656
     29 CCI        13.8023    9.4368    7.7512 C.3         1 A02       0.1308
     30 CCB        14.1114    9.8913    6.3928 C.2         1 A02       0.2016
     31 OAK        14.4021   11.0748    6.2360 O.2         1 A02      -0.3945
     32 CBJ        12.8536   10.3594    8.6217 C.3         1 A02      -0.0122
     33 CAZ        12.1624   11.6210    8.0133 C.3         1 A02      -0.0440
     34 CAS        11.0486   11.3669    6.9589 C.3         1 A02      -0.0124
     35 CAR         9.8000   10.6255    7.5043 C.3         1 A02      -0.0354
     36 NAC         8.6737   11.5403    7.7337 N.4         1 A02       0.2185
     37 CCA        18.3570   12.2849    5.1760 C.2         1 A02       0.1782
     38 OAJ        18.1464   12.8950    6.2150 O.2         1 A02      -0.3969
     39 CBH        18.8654   10.9244    5.2633 C.3         1 A02       0.0374
     40 CAY        17.8037    9.8616    5.6773 C.3         1 A02      -0.0360
     41 CAT        17.1070    9.1269    4.4973 C.3         1 A02      -0.0492
     42 CAV        15.9766    9.9367    3.7875 C.3         1 A02      -0.0326
     43 CBC        14.5421    9.3806    4.0102 C.3         1 A02       0.0310
     44 NBQ        14.2235    9.0472    5.3683 N.am        1 A02      -0.2851
     45 NBT        18.1791   12.8565    3.9876 N.am        1 A02      -0.2656
     46 CCJ        17.8390   14.2267    3.6932 C.3         1 A02       0.1310
     47 CBK        19.0874   15.1574    3.8486 C.3         1 A02      -0.0092
     48 CBB        20.2354   14.8447    2.8431 C.3         1 A02      -0.0156
     49 CBF        21.3790   15.8956    2.8658 C.3         1 A02       0.0627
     50 NBP        20.9611   17.2138    2.6367 N.pl3       1 A02      -0.2723
     51 CBX        20.4861   17.7220    1.5603 C.cat       1 A02       0.2882
     52 NAB        20.3370   17.0948    0.4531 N.pl3       1 A02      -0.2849
     53 NAE        20.1314   18.9478    1.5960 N.pl3       1 A02      -0.2849
     54 CCD        16.6478   14.7616    4.3628 C.2         1 A02       0.2039
     55 OAM        15.9593   14.0567    5.0936 O.2         1 A02      -0.3944
     56 N          16.3008   16.0240    4.1232 N.am        1 A02      -0.2637
     57 CA         15.2796   16.8613    4.6995 C.3         1 A02       0.1307
     58 CB         15.7649   17.7867    5.8657 C.3         1 A02      -0.0092
     59 CG         17.2392   18.2973    5.7888 C.3         1 A02      -0.0156
     60 CD         18.2253   17.4885    6.6794 C.3         1 A02       0.0627
     61 NE         17.8153   17.4333    8.0161 N.pl3       1 A02      -0.2723
     62 CZ         17.9979   18.3118    8.9274 C.cat       1 A02       0.2882
     63 NH1        18.6550   19.4025    8.7949 N.pl3       1 A02      -0.2849
     64 NH2        17.4680   18.0970   10.0725 N.pl3       1 A02      -0.2849
     65 C          14.0294   16.1664    5.0198 C.2         1 A02       0.1992
     66 O          13.0392   16.3063    4.3150 O.2         1 A02      -0.3947
     67 NAF        13.8884   15.4211    6.0988 N.am        1 A02      -0.2990
     68 H1          2.4955   11.4906   14.9748 H           1 A02       0.0996
     69 H2          1.0244    6.6160   16.3230 H           1 A02       0.1820
     70 H3          0.2643    8.0165   16.8478 H           1 A02       0.1820
     71 H4          4.7164    5.6663   13.4414 H           1 A02       0.1349
     72 H5          9.0586    9.9392   13.6241 H           1 A02       0.2102
     73 H6          6.8608   10.3129   11.8436 H           1 A02       0.2101
     74 H7          8.2239    7.7365   14.0497 H           1 A02       0.0673
     75 H8          6.4954    9.2052   14.4270 H           1 A02       0.0678
     76 H9          7.8961    8.0855   11.0227 H           1 A02       0.0869
     77 H10         5.2247    8.7730   11.7958 H           1 A02       0.0998
     78 H11        12.9989    5.5562    7.7676 H           1 A02       0.0502
     79 H12        11.2782    5.6498    7.3784 H           1 A02       0.0502
     80 H13        10.8894    6.5050    9.8014 H           1 A02       0.0290
     81 H14        12.5745    6.0723   10.1162 H           1 A02       0.0290
     82 H15        11.4634    4.1826   10.8846 H           1 A02       0.0267
     83 H16        11.9845    3.6968    9.2866 H           1 A02       0.0267
     84 H17         9.8321    2.9247    9.1412 H           1 A02       0.0285
     85 H18         9.4751    4.5601    8.6049 H           1 A02       0.0285
     86 H19         9.2686    3.7009   11.5389 H           1 A02       0.0520
     87 H20         7.9584    3.4538   10.4029 H           1 A02       0.0520
     88 H21         7.6054    5.6940   10.1682 H           1 A02       0.1851
     89 H22        14.1505    7.4449    8.1483 H           1 A02       0.1883
     90 H23        14.7784    9.4657    8.2513 H           1 A02       0.0800
     91 H24        13.4467   10.7325    9.4624 H           1 A02       0.0312
     92 H25        12.0708    9.7476    9.0808 H           1 A02       0.0312
     93 H26        12.9207   12.2672    7.5712 H           1 A02       0.0269
     94 H27        11.7277   12.1967    8.8347 H           1 A02       0.0269
     95 H28        11.4583   10.8046    6.1208 H           1 A02       0.0317
     96 H29        10.7222   12.3301    6.5601 H           1 A02       0.0317
     97 H30        10.0249   10.1090    8.4399 H           1 A02       0.0813
     98 H31         9.4761    9.8779    6.7741 H           1 A02       0.0813
     99 H32         7.8702   11.0112    8.0855 H           1 A02       0.1994
    100 H33         8.4185   11.9990    6.8533 H           1 A02       0.1994
    101 H34         8.9355   12.2497    8.4218 H           1 A02       0.1994
    102 H35        19.6769   10.9217    5.9984 H           1 A02       0.0502
    103 H36        19.3197   10.6308    4.3125 H           1 A02       0.0502
    104 H37        17.0423   10.3089    6.3247 H           1 A02       0.0290
    105 H38        18.3129    9.0971    6.2730 H           1 A02       0.0290
    106 H39        16.6996    8.1935    4.8950 H           1 A02       0.0267
    107 H40        17.8643    8.8389    3.7621 H           1 A02       0.0267
    108 H41        16.1711    9.9385    2.7107 H           1 A02       0.0285
    109 H42        15.9943   10.9813    4.1036 H           1 A02       0.0285
    110 H43        14.4323    8.4686    3.4171 H           1 A02       0.0520
    111 H44        13.8074   10.1041    3.6423 H           1 A02       0.0520
    112 H45        14.0618    8.1061    5.5506 H           1 A02       0.1851
    113 H46        18.3358   12.2933    3.2140 H           1 A02       0.1883
    114 H47        17.5797   14.2206    2.6289 H           1 A02       0.0800
    115 H48        19.4797   15.0842    4.8676 H           1 A02       0.0313
    116 H49        18.7782   16.1944    3.6909 H           1 A02       0.0313
    117 H50        19.8305   14.7833    1.8290 H           1 A02       0.0301
    118 H51        20.6586   13.8655    3.0850 H           1 A02       0.0301
    119 H52        22.1486   15.6195    2.1385 H           1 A02       0.0689
    120 H53        21.8393   15.8730    3.8559 H           1 A02       0.0689
    121 H54        21.0441   17.8015    3.3627 H           1 A02       0.2642
    122 H55        19.9801   17.5387   -0.2907 H           1 A02       0.2615
    123 H56        20.5936   16.1991    0.3831 H           1 A02       0.2615
    124 H57        20.2182   19.4339    2.3888 H           1 A02       0.2615
    125 H58        19.7717   19.3594    0.8382 H           1 A02       0.2615
    126 H59        16.8639   16.4879    3.4793 H           1 A02       0.1883
    127 H60        15.0514   17.5567    3.8804 H           1 A02       0.0800
    128 H61        15.6089   17.2884    6.8249 H           1 A02       0.0313
    129 H62        15.1087   18.6645    5.8724 H           1 A02       0.0313
    130 H63        17.2677   19.3425    6.1078 H           1 A02       0.0301
    131 H64        17.5901   18.2822    4.7544 H           1 A02       0.0301
    132 H65        19.2347   17.9005    6.5988 H           1 A02       0.0689
    133 H66        18.2647   16.4633    6.3144 H           1 A02       0.0689
    134 H67        17.3120   16.6820    8.2627 H           1 A02       0.2642
    135 H68        18.7159   19.9833    9.5240 H           1 A02       0.2615
    136 H69        19.0621   19.6187    7.9821 H           1 A02       0.2615
    137 H70        16.9690   17.3192   10.2179 H           1 A02       0.2615
    138 H71        17.5770   18.7285   10.7527 H           1 A02       0.2615
    139 H72        13.0324   15.0007    6.2912 H           1 A02       0.1815
    140 H73        14.6276   15.3069    6.7231 H           1 A02       0.1815
@<TRIPOS>BOND
     1     2     1  ar
     2     6     1  ar
     3     3     2  ar
     4     4     3  ar
     5     4     5  ar
     6    10     4   1
     7     5     6  ar
     8     8     5   1
     9     6     7   1
    10     9     8   2
    11    10     9   1
    12    19    10   1
    13    15    11   2
    14    16    12   1
    15    17    13   1
    16    18    14   1
    17    14    19   1
    18    15    18   1
    19    27    15  am
    20    16    17   1
    21    18    16   1
    22    17    19   1
    23    20    21   2
    24    20    22   1
    25    28    20  am
    26    22    23   1
    27    23    24   1
    28    24    25   1
    29    25    26   1
    30    26    27   1
    31    29    28   1
    32    30    29   1
    33    29    32   1
    34    30    31   2
    35    44    30  am
    36    32    33   1
    37    33    34   1
    38    34    35   1
    39    35    36   1
    40    37    38   2
    41    39    37   1
    42    37    45  am
    43    40    39   1
    44    41    40   1
    45    42    41   1
    46    43    42   1
    47    43    44   1
    48    45    46   1
    49    46    47   1
    50    46    54   1
    51    47    48   1
    52    48    49   1
    53    49    50   1
    54    50    51  ar
    55    51    52  ar
    56    51    53  ar
    57    54    55   2
    58    54    56  am
    59    56    57   1
    60    57    58   1
    61    57    65   1
    62    58    59   1
    63    59    60   1
    64    60    61   1
    65    61    62  ar
    66    62    63  ar
    67    62    64  ar
    68    65    66   2
    69    65    67  am
    70     2    68   1
    71     7    69   1
    72     7    70   1
    73     9    71   1
    74    12    72   1
    75    13    73   1
    76    16    74   1
    77    17    75   1
    78    18    76   1
    79    19    77   1
    80    22    78   1
    81    22    79   1
    82    23    80   1
    83    23    81   1
    84    24    82   1
    85    24    83   1
    86    25    84   1
    87    25    85   1
    88    26    86   1
    89    26    87   1
    90    27    88   1
    91    28    89   1
    92    29    90   1
    93    32    91   1
    94    32    92   1
    95    33    93   1
    96    33    94   1
    97    34    95   1
    98    34    96   1
    99    35    97   1
   100    35    98   1
   101    36    99   1
   102    36   100   1
   103    36   101   1
   104    39   102   1
   105    39   103   1
   106    40   104   1
   107    40   105   1
   108    41   106   1
   109    41   107   1
   110    42   108   1
   111    42   109   1
   112    43   110   1
   113    43   111   1
   114    44   112   1
   115    45   113   1
   116    46   114   1
   117    47   115   1
   118    47   116   1
   119    48   117   1
   120    48   118   1
   121    49   119   1
   122    49   120   1
   123    50   121   1
   124    52   122   1
   125    52   123   1
   126    53   124   1
   127    53   125   1
   128    56   126   1
   129    57   127   1
   130    58   128   1
   131    58   129   1
   132    59   130   1
   133    59   131   1
   134    60   132   1
   135    60   133   1
   136    61   134   1
   137    63   135   1
   138    63   136   1
   139    64   137   1
   140    64   138   1
   141    67   139   1
   142    67   140   1
@<TRIPOS>SUBSTRUCTURE
     1  A02      2

