@<TRIPOS>MOLECULE
3ag9_ligand_003
   140   142
SMALL
GAST_HUCK
****
This file was generated by PARSER (from files_GN.cpp)

@<TRIPOS>ATOM
      1 N1          9.0020    3.3170   14.6242 N.ar        1 A02      -0.2698
      2 C2          9.8403    3.5620   13.5786 C.ar        1 A02       0.0533
      3 N3          9.4196    4.3233   12.5395 N.ar        1 A02      -0.2714
      4 C4          8.1704    4.8539   12.5409 C.ar        1 A02       0.1613
      5 C5          7.2966    4.6150   13.5961 C.ar        1 A02       0.1045
      6 C6          7.7365    3.8221   14.6677 C.ar        1 A02       0.1298
      7 N6          6.9419    3.5573   15.7097 N.pl3       1 A02      -0.3152
      8 N7          6.1405    5.2420   13.3422 N.2         1 A02      -0.2958
      9 C8          6.2974    5.8576   12.1536 C.2         1 A02       0.1123
     10 N9          7.5280    5.6293   11.6485 N.pl3       1 A02      -0.1918
     11 OAL        11.1890    4.3374   10.0484 O.2         1 A02      -0.3941
     12 OAN         9.4461    7.7779    8.2177 O.3         1 A02      -0.3840
     13 OAO         8.9420    8.3617   10.8780 O.3         1 A02      -0.3834
     14 OBV         8.4544    4.9966    9.5935 O.3         1 A02      -0.3181
     15 CCC        10.6092    4.3859    8.9720 C.2         1 A02       0.2080
     16 CCK         9.9584    6.8431    9.1677 C.3         1 A02       0.1295
     17 CCL         9.2835    7.0189   10.5370 C.3         1 A02       0.1408
     18 CCM         9.5670    5.3911    8.7764 C.3         1 A02       0.1788
     19 CCN         8.0462    6.1072   10.3984 C.3         1 A02       0.2035
     20 CBZ        17.0051    1.4672    5.9811 C.2         1 A02       0.1782
     21 OAI        17.0501    1.3674    4.7618 O.2         1 A02      -0.3969
     22 CBG        16.1627    0.5455    6.7146 C.3         1 A02       0.0374
     23 CAX        14.6466    0.7036    6.4097 C.3         1 A02      -0.0360
     24 CAU        14.0569    2.0698    6.8568 C.3         1 A02      -0.0492
     25 CAW        12.4995    2.1743    6.7616 C.3         1 A02      -0.0326
     26 CBD        11.7237    2.3435    8.1050 C.3         1 A02       0.0310
     27 NBR        10.8173    3.4605    8.0469 N.am        1 A02      -0.2847
     28 NBS        17.6967    2.4108    6.6152 N.am        1 A02      -0.2656
     29 CCI        18.5726    3.4037    6.0492 C.3         1 A02       0.1308
     30 CCB        17.9169    4.7090    6.0490 C.2         1 A02       0.2016
     31 OAK        16.8870    4.8089    5.3908 O.2         1 A02      -0.3945
     32 CBJ        19.9837    3.3349    6.7233 C.3         1 A02      -0.0122
     33 CAZ        20.0225    3.2453    8.2858 C.3         1 A02      -0.0440
     34 CAS        20.6080    1.9342    8.8998 C.3         1 A02      -0.0124
     35 CAR        21.9826    1.4340    8.3712 C.3         1 A02      -0.0354
     36 NAC        22.9489    2.5196    8.1565 N.4         1 A02       0.2185
     37 CCA        18.3738   12.0677    3.8206 C.2         1 A02       0.1782
     38 OAJ        18.0960   11.1486    3.0633 O.2         1 A02      -0.3969
     39 CBH        19.2047   11.8675    4.9975 C.3         1 A02       0.0374
     40 CAY        19.6931   10.4229    5.2956 C.3         1 A02      -0.0360
     41 CAT        18.5475    9.4198    5.6038 C.3         1 A02      -0.0492
     42 CAV        19.0684    8.0926    6.2063 C.3         1 A02      -0.0326
     43 CBC        17.9215    7.1263    6.5984 C.3         1 A02       0.0310
     44 NBQ        18.4060    5.7829    6.6747 N.am        1 A02      -0.2851
     45 NBT        17.9431   13.3009    3.5746 N.am        1 A02      -0.2656
     46 CCJ        17.0847   13.7366    2.5037 C.3         1 A02       0.1310
     47 CBK        17.6867   13.6465    1.0458 C.3         1 A02      -0.0092
     48 CBB        19.1994   13.3335    0.7916 C.3         1 A02      -0.0156
     49 CBF        20.2612   14.0498    1.6619 C.3         1 A02       0.0627
     50 NBP        20.0482   15.4244    1.8141 N.pl3       1 A02      -0.2723
     51 CBX        20.5583   16.1797    2.7182 C.cat       1 A02       0.2882
     52 NAB        21.3183   15.7715    3.6638 N.pl3       1 A02      -0.2849
     53 NAE        20.2924   17.4250    2.6996 N.pl3       1 A02      -0.2849
     54 CCD        16.5451   15.0368    2.9102 C.2         1 A02       0.2039
     55 OAM        16.8072   16.0475    2.2697 O.2         1 A02      -0.3944
     56 N          15.8153   15.1216    4.0228 N.am        1 A02      -0.2637
     57 CA         15.1896   16.2989    4.5611 C.3         1 A02       0.1307
     58 CB         16.0744   17.0995    5.5818 C.3         1 A02      -0.0092
     59 CG         17.5396   16.6084    5.7822 C.3         1 A02      -0.0156
     60 CD         18.3493   17.5090    6.7469 C.3         1 A02       0.0627
     61 NE         17.8267   17.4685    8.0457 N.pl3       1 A02      -0.2723
     62 CZ         18.0183   18.3153    8.9856 C.cat       1 A02       0.2882
     63 NH1        18.7329   19.3666    8.8990 N.pl3       1 A02      -0.2849
     64 NH2        17.4320   18.1139   10.1045 N.pl3       1 A02      -0.2849
     65 C          13.9009   15.9032    5.1177 C.2         1 A02       0.1992
     66 O          12.8544   16.1742    4.5492 O.2         1 A02      -0.3947
     67 NAF        13.8025   15.2546    6.2567 N.am        1 A02      -0.2990
     68 H1         10.7822    3.1702   13.5751 H           1 A02       0.0996
     69 H2          6.0392    3.9142   15.7311 H           1 A02       0.1820
     70 H3          7.2552    2.9952   16.4377 H           1 A02       0.1820
     71 H4          5.5661    6.4143   11.7014 H           1 A02       0.1349
     72 H5          9.7882    8.6506    8.4972 H           1 A02       0.2102
     73 H6          8.2928    8.6478   10.2024 H           1 A02       0.2101
     74 H7         11.0397    6.9883    9.2401 H           1 A02       0.0673
     75 H8          9.9580    6.6430   11.3111 H           1 A02       0.0678
     76 H9          9.2370    5.3777    7.7339 H           1 A02       0.0869
     77 H10         7.2682    6.6437    9.8442 H           1 A02       0.0998
     78 H11        16.3138    0.6519    7.7933 H           1 A02       0.0502
     79 H12        16.4645   -0.4713    6.4554 H           1 A02       0.0502
     80 H13        14.1145   -0.0983    6.9256 H           1 A02       0.0290
     81 H14        14.4706    0.5720    5.3374 H           1 A02       0.0290
     82 H15        14.4976    2.8407    6.2188 H           1 A02       0.0267
     83 H16        14.3886    2.2810    7.8743 H           1 A02       0.0267
     84 H17        12.0994    1.2939    6.2504 H           1 A02       0.0285
     85 H18        12.2697    3.0220    6.1102 H           1 A02       0.0285
     86 H19        12.4093    2.4352    8.9503 H           1 A02       0.0520
     87 H20        11.1189    1.4494    8.2852 H           1 A02       0.0520
     88 H21        10.2757    3.5184    7.2429 H           1 A02       0.1851
     89 H22        17.5695    2.4562    7.5711 H           1 A02       0.1883
     90 H23        18.7564    3.1859    4.9919 H           1 A02       0.0800
     91 H24        20.5705    4.1995    6.4182 H           1 A02       0.0312
     92 H25        20.5096    2.4784    6.3083 H           1 A02       0.0312
     93 H26        19.0214    3.3776    8.7054 H           1 A02       0.0269
     94 H27        20.6023    4.0835    8.6792 H           1 A02       0.0269
     95 H28        19.8809    1.1278    8.7719 H           1 A02       0.0317
     96 H29        20.7078    2.0961    9.9796 H           1 A02       0.0317
     97 H30        21.8464    0.9023    7.4261 H           1 A02       0.0813
     98 H31        22.4135    0.7319    9.0923 H           1 A02       0.0813
     99 H32        23.7696    2.1469    7.6626 H           1 A02       0.1994
    100 H33        23.2368    2.9068    9.0614 H           1 A02       0.1994
    101 H34        22.5178    3.2571    7.5874 H           1 A02       0.1994
    102 H35        18.6499   12.2272    5.8687 H           1 A02       0.0502
    103 H36        20.0931   12.5003    4.9023 H           1 A02       0.0502
    104 H37        20.3578   10.4810    6.1613 H           1 A02       0.0290
    105 H38        20.2870   10.0592    4.4540 H           1 A02       0.0290
    106 H39        18.0157    9.1935    4.6725 H           1 A02       0.0267
    107 H40        17.8382    9.8783    6.3011 H           1 A02       0.0267
    108 H41        19.6646    8.3040    7.0970 H           1 A02       0.0285
    109 H42        19.7191    7.6180    5.4695 H           1 A02       0.0285
    110 H43        17.0932    7.2175    5.8906 H           1 A02       0.0520
    111 H44        17.5426    7.4039    7.5815 H           1 A02       0.0520
    112 H45        19.2193    5.6588    7.1897 H           1 A02       0.1851
    113 H46        18.2153   13.9808    4.2155 H           1 A02       0.1883
    114 H47        16.2181   13.0626    2.5200 H           1 A02       0.0800
    115 H48        17.4617   14.5557    0.4906 H           1 A02       0.0313
    116 H49        17.1374   12.8630    0.5124 H           1 A02       0.0313
    117 H50        19.4158   13.5715   -0.2543 H           1 A02       0.0301
    118 H51        19.3540   12.2559    0.8967 H           1 A02       0.0301
    119 H52        21.2459   13.8949    1.2151 H           1 A02       0.0689
    120 H53        20.2961   13.5633    2.6301 H           1 A02       0.0689
    121 H54        19.4931   15.8368    1.1809 H           1 A02       0.2642
    122 H55        21.6390   16.3868    4.2903 H           1 A02       0.2615
    123 H56        21.5476   14.8670    3.7403 H           1 A02       0.2615
    124 H57        19.7419   17.7855    2.0342 H           1 A02       0.2615
    125 H58        20.6584   17.9865    3.3547 H           1 A02       0.2615
    126 H59        15.6943   14.2987    4.5183 H           1 A02       0.1883
    127 H60        14.9767   16.9778    3.7261 H           1 A02       0.0800
    128 H61        15.6110   17.1205    6.5688 H           1 A02       0.0313
    129 H62        16.1173   18.1420    5.2571 H           1 A02       0.0313
    130 H63        18.0522   16.6040    4.8160 H           1 A02       0.0301
    131 H64        17.5336   15.5822    6.1669 H           1 A02       0.0301
    132 H65        18.3378   18.5282    6.3495 H           1 A02       0.0689
    133 H66        19.3893   17.1697    6.7749 H           1 A02       0.0689
    134 H67        17.2588   16.7516    8.2447 H           1 A02       0.2642
    135 H68        18.7986   19.9356    9.6344 H           1 A02       0.2615
    136 H69        19.1856   19.5802    8.1117 H           1 A02       0.2615
    137 H70        16.8965   17.3601   10.2266 H           1 A02       0.2615
    138 H71        17.5473   18.7344   10.7916 H           1 A02       0.2615
    139 H72        12.9360   15.0312    6.6260 H           1 A02       0.1815
    140 H73        14.5907   15.0594    6.7791 H           1 A02       0.1815
@<TRIPOS>BOND
     1     2     1  ar
     2     6     1  ar
     3     3     2  ar
     4     4     3  ar
     5     4     5  ar
     6    10     4   1
     7     5     6  ar
     8     8     5   1
     9     6     7   1
    10     9     8   2
    11    10     9   1
    12    19    10   1
    13    15    11   2
    14    16    12   1
    15    17    13   1
    16    18    14   1
    17    14    19   1
    18    15    18   1
    19    27    15  am
    20    16    17   1
    21    18    16   1
    22    17    19   1
    23    20    21   2
    24    20    22   1
    25    28    20  am
    26    22    23   1
    27    23    24   1
    28    24    25   1
    29    25    26   1
    30    26    27   1
    31    29    28   1
    32    30    29   1
    33    29    32   1
    34    30    31   2
    35    44    30  am
    36    32    33   1
    37    33    34   1
    38    34    35   1
    39    35    36   1
    40    37    38   2
    41    39    37   1
    42    37    45  am
    43    40    39   1
    44    41    40   1
    45    42    41   1
    46    43    42   1
    47    43    44   1
    48    45    46   1
    49    46    47   1
    50    46    54   1
    51    47    48   1
    52    48    49   1
    53    49    50   1
    54    50    51  ar
    55    51    52  ar
    56    51    53  ar
    57    54    55   2
    58    54    56  am
    59    56    57   1
    60    57    58   1
    61    57    65   1
    62    58    59   1
    63    59    60   1
    64    60    61   1
    65    61    62  ar
    66    62    63  ar
    67    62    64  ar
    68    65    66   2
    69    65    67  am
    70     2    68   1
    71     7    69   1
    72     7    70   1
    73     9    71   1
    74    12    72   1
    75    13    73   1
    76    16    74   1
    77    17    75   1
    78    18    76   1
    79    19    77   1
    80    22    78   1
    81    22    79   1
    82    23    80   1
    83    23    81   1
    84    24    82   1
    85    24    83   1
    86    25    84   1
    87    25    85   1
    88    26    86   1
    89    26    87   1
    90    27    88   1
    91    28    89   1
    92    29    90   1
    93    32    91   1
    94    32    92   1
    95    33    93   1
    96    33    94   1
    97    34    95   1
    98    34    96   1
    99    35    97   1
   100    35    98   1
   101    36    99   1
   102    36   100   1
   103    36   101   1
   104    39   102   1
   105    39   103   1
   106    40   104   1
   107    40   105   1
   108    41   106   1
   109    41   107   1
   110    42   108   1
   111    42   109   1
   112    43   110   1
   113    43   111   1
   114    44   112   1
   115    45   113   1
   116    46   114   1
   117    47   115   1
   118    47   116   1
   119    48   117   1
   120    48   118   1
   121    49   119   1
   122    49   120   1
   123    50   121   1
   124    52   122   1
   125    52   123   1
   126    53   124   1
   127    53   125   1
   128    56   126   1
   129    57   127   1
   130    58   128   1
   131    58   129   1
   132    59   130   1
   133    59   131   1
   134    60   132   1
   135    60   133   1
   136    61   134   1
   137    63   135   1
   138    63   136   1
   139    64   137   1
   140    64   138   1
   141    67   139   1
   142    67   140   1
@<TRIPOS>SUBSTRUCTURE
     1  A02      2

