@<TRIPOS>MOLECULE
3ag9_ligand_007
   140   142
SMALL
GAST_HUCK
****
This file was generated by PARSER (from files_GN.cpp)

@<TRIPOS>ATOM
      1 N1          7.5144    6.1899   13.5486 N.ar        1 A02      -0.2698
      2 C2          6.4840    5.3719   13.9067 C.ar        1 A02       0.0533
      3 N3          5.2729    5.8981   14.2318 N.ar        1 A02      -0.2714
      4 C4          5.0869    7.2428   14.1933 C.ar        1 A02       0.1613
      5 C5          6.1259    8.0948   13.8328 C.ar        1 A02       0.1045
      6 C6          7.3744    7.5427   13.4998 C.ar        1 A02       0.1298
      7 N6          8.4141    8.3193   13.1538 N.pl3       1 A02      -0.3152
      8 N7          5.6844    9.3601   13.8879 N.2         1 A02      -0.2958
      9 C8          4.3993    9.2844   14.2727 C.2         1 A02       0.1123
     10 N9          4.0065    8.0039   14.4571 N.pl3       1 A02      -0.1918
     11 OAL        -0.5036    6.7908   12.0604 O.2         1 A02      -0.3941
     12 OAN        -0.1138    7.0825   15.9663 O.3         1 A02      -0.3840
     13 OAO         1.4641    9.3683   15.9470 O.3         1 A02      -0.3834
     14 OBV         2.3291    6.3753   14.1027 O.3         1 A02      -0.3181
     15 CCC         0.6505    6.5472   12.4033 C.2         1 A02       0.2080
     16 CCK         0.3351    7.5593   14.6946 C.3         1 A02       0.1295
     17 CCL         1.5366    8.5000   14.8180 C.3         1 A02       0.1408
     18 CCM         0.9159    6.4104   13.8278 C.3         1 A02       0.1788
     19 CCN         2.7237    7.5143   14.8887 C.3         1 A02       0.2035
     20 CBZ         6.2191    9.4968    9.3804 C.2         1 A02       0.1782
     21 OAI         6.6490    9.5075   10.5294 O.2         1 A02      -0.3969
     22 CBG         6.1065    8.2178    8.7013 C.3         1 A02       0.0374
     23 CAX         4.6601    7.7440    8.4042 C.3         1 A02      -0.0360
     24 CAU         3.8779    7.1893    9.6305 C.3         1 A02      -0.0492
     25 CAW         2.6607    6.3201    9.2041 C.3         1 A02      -0.0326
     26 CBD         1.3856    6.4923   10.0706 C.3         1 A02       0.0310
     27 NBR         1.5897    6.3402   11.4782 N.am        1 A02      -0.2847
     28 NBS         5.9922   10.6301    8.7211 N.am        1 A02      -0.2656
     29 CCI         6.3050   11.9576    9.1851 C.3         1 A02       0.1308
     30 CCB         6.3874   12.8696    8.0434 C.2         1 A02       0.2016
     31 OAK         5.4475   12.9104    7.2565 O.2         1 A02      -0.3945
     32 CBJ         5.3055   12.4964   10.2759 C.3         1 A02      -0.0122
     33 CAZ         5.9160   12.6373   11.7032 C.3         1 A02      -0.0440
     34 CAS         5.2058   13.6652   12.6276 C.3         1 A02      -0.0124
     35 CAR         3.8554   13.1818   13.2056 C.3         1 A02      -0.0354
     36 NAC         3.4393   14.0182   14.3386 N.4         1 A02       0.2185
     37 CCA        12.4952   15.8405    3.5262 C.2         1 A02       0.1782
     38 OAJ        12.8478   14.9316    2.7886 O.2         1 A02      -0.3969
     39 CBH        11.1326   15.8388    4.0461 C.3         1 A02       0.0374
     40 CAY        10.8279   14.5648    4.8858 C.3         1 A02      -0.0360
     41 CAT         9.3448   14.3819    5.3110 C.3         1 A02      -0.0492
     42 CAV         8.9502   15.1185    6.6196 C.3         1 A02      -0.0326
     43 CBC         7.4926   14.8579    7.0755 C.3         1 A02       0.0310
     44 NBQ         7.3913   13.7371    7.9622 N.am        1 A02      -0.2851
     45 NBT        13.3496   16.7828    3.9102 N.am        1 A02      -0.2656
     46 CCJ        14.7777   16.8241    3.6920 C.3         1 A02       0.1310
     47 CBK        15.4321   15.4950    4.1930 C.3         1 A02      -0.0092
     48 CBB        16.9821   15.4591    4.3212 C.3         1 A02      -0.0156
     49 CBF        17.7631   15.1440    3.0128 C.3         1 A02       0.0627
     50 NBP        19.1433   15.0774    3.2617 N.pl3       1 A02      -0.2723
     51 CBX        19.9449   16.0405    3.5374 C.cat       1 A02       0.2882
     52 NAB        19.6243   17.2776    3.5404 N.pl3       1 A02      -0.2849
     53 NAE        21.1505   15.7604    3.8635 N.pl3       1 A02      -0.2849
     54 CCD        15.3383   17.9886    4.3772 C.2         1 A02       0.2039
     55 OAM        14.9258   18.2810    5.4926 O.2         1 A02      -0.3944
     56 N          16.3741   18.6432    3.8569 N.am        1 A02      -0.2637
     57 CA         17.1629   19.6886    4.4600 C.3         1 A02       0.1307
     58 CB         17.8517   19.2052    5.7788 C.3         1 A02      -0.0092
     59 CG         18.6453   20.2855    6.5648 C.3         1 A02      -0.0156
     60 CD         19.5132   19.6985    7.7162 C.3         1 A02       0.0627
     61 NE         18.7711   19.2930    8.8371 N.pl3       1 A02      -0.2723
     62 CZ         18.1369   18.1949    9.0286 C.cat       1 A02       0.2882
     63 NH1        18.0758   17.2146    8.2080 N.pl3       1 A02      -0.2849
     64 NH2        17.4868   18.0834   10.1204 N.pl3       1 A02      -0.2849
     65 C          16.3946   20.9212    4.5504 C.2         1 A02       0.1992
     66 O          15.8638   21.2708    5.5955 O.2         1 A02      -0.3947
     67 NAF        16.1880   21.6671    3.4867 N.am        1 A02      -0.2990
     68 H1          6.6258    4.3645   13.9348 H           1 A02       0.0996
     69 H2          8.3165    9.2859   13.1301 H           1 A02       0.1820
     70 H3          9.2699    7.9161   12.9349 H           1 A02       0.1820
     71 H4          3.8156   10.1112   14.4246 H           1 A02       0.1349
     72 H5          0.4988    6.3612   16.2182 H           1 A02       0.2102
     73 H6          0.6477    9.8966   15.8146 H           1 A02       0.2101
     74 H7         -0.5067    8.0779   14.2271 H           1 A02       0.0673
     75 H8          1.6009    9.1062   13.9096 H           1 A02       0.0678
     76 H9          0.4920    5.4562   14.1506 H           1 A02       0.0869
     77 H10         2.8363    7.1751   15.9232 H           1 A02       0.0998
     78 H11         6.6063    7.4337    9.2801 H           1 A02       0.0502
     79 H12         6.6456    8.2887    7.7507 H           1 A02       0.0502
     80 H13         4.7308    6.9556    7.6493 H           1 A02       0.0290
     81 H14         4.0932    8.5673    7.9591 H           1 A02       0.0290
     82 H15         3.5381    8.0300   10.2420 H           1 A02       0.0267
     83 H16         4.5447    6.5751   10.2444 H           1 A02       0.0267
     84 H17         2.9568    5.2672    9.2060 H           1 A02       0.0285
     85 H18         2.3787    6.5755    8.1771 H           1 A02       0.0285
     86 H19         0.6562    5.7500    9.7352 H           1 A02       0.0520
     87 H20         0.9690    7.4859    9.8824 H           1 A02       0.0520
     88 H21         2.4690    6.0671   11.7828 H           1 A02       0.1851
     89 H22         5.6796   10.5441    7.8056 H           1 A02       0.1883
     90 H23         7.3067   11.8894    9.6250 H           1 A02       0.0800
     91 H24         4.4345   11.8347   10.3326 H           1 A02       0.0312
     92 H25         4.9237   13.4819    9.9889 H           1 A02       0.0312
     93 H26         6.9569   12.9606   11.6151 H           1 A02       0.0269
     94 H27         5.9201   11.6572   12.1900 H           1 A02       0.0269
     95 H28         5.0462   14.5926   12.0694 H           1 A02       0.0317
     96 H29         5.8820   13.8968   13.4576 H           1 A02       0.0317
     97 H30         3.9469   12.1509   13.5495 H           1 A02       0.0813
     98 H31         3.0819   13.2314   12.4338 H           1 A02       0.0813
     99 H32         2.5197   13.7055   14.6632 H           1 A02       0.1994
    100 H33         3.3790   14.9991   14.0427 H           1 A02       0.1994
    101 H34         4.1190   13.9281   15.1021 H           1 A02       0.1994
    102 H35        10.4434   15.9054    3.2025 H           1 A02       0.0502
    103 H36        10.9740   16.7247    4.6653 H           1 A02       0.0502
    104 H37        11.4526   14.5746    5.7825 H           1 A02       0.0290
    105 H38        11.1115   13.6880    4.2982 H           1 A02       0.0290
    106 H39         9.1709   13.3128    5.4527 H           1 A02       0.0267
    107 H40         8.6969   14.7160    4.4984 H           1 A02       0.0267
    108 H41         9.0624   16.1939    6.4690 H           1 A02       0.0285
    109 H42         9.6271   14.8223    7.4240 H           1 A02       0.0285
    110 H43         6.8501   14.7560    6.1970 H           1 A02       0.0520
    111 H44         7.1501   15.7327    7.6343 H           1 A02       0.0520
    112 H45         8.0588   13.6900    8.6674 H           1 A02       0.1851
    113 H46        12.9872   17.4919    4.4624 H           1 A02       0.1883
    114 H47        14.9526   16.9268    2.6161 H           1 A02       0.0800
    115 H48        15.1422   14.6797    3.5274 H           1 A02       0.0313
    116 H49        15.0209   15.2595    5.1806 H           1 A02       0.0313
    117 H50        17.2329   14.6875    5.0617 H           1 A02       0.0301
    118 H51        17.3245   16.4132    4.7259 H           1 A02       0.0301
    119 H52        17.5362   15.8742    2.2312 H           1 A02       0.0689
    120 H53        17.4482   14.1619    2.6458 H           1 A02       0.0689
    121 H54        19.5101   14.2169    3.2990 H           1 A02       0.2642
    122 H55        20.2602   17.9238    3.7734 H           1 A02       0.2615
    123 H56        18.7621   17.5408    3.3009 H           1 A02       0.2615
    124 H57        21.4406   14.8703    3.8982 H           1 A02       0.2615
    125 H58        21.7333   16.4529    4.1106 H           1 A02       0.2615
    126 H59        16.6714   18.3447    2.9847 H           1 A02       0.1883
    127 H60        17.9837   19.8768    3.7575 H           1 A02       0.0800
    128 H61        18.5561   18.4091    5.5155 H           1 A02       0.0313
    129 H62        17.1015   18.7836    6.4548 H           1 A02       0.0313
    130 H63        17.9508   21.0200    6.9871 H           1 A02       0.0301
    131 H64        19.3065   20.8177    5.8751 H           1 A02       0.0301
    132 H65        20.1878   20.4865    8.0625 H           1 A02       0.0689
    133 H66        20.1427   18.8875    7.3363 H           1 A02       0.0689
    134 H67        18.7174   19.9045    9.5437 H           1 A02       0.2642
    135 H68        17.5460   16.4691    8.4143 H           1 A02       0.2615
    136 H69        18.5456   17.2419    7.4019 H           1 A02       0.2615
    137 H70        17.5051   18.7855   10.7397 H           1 A02       0.2615
    138 H71        16.9927   17.3063   10.2997 H           1 A02       0.2615
    139 H72        15.6569   22.4748    3.5579 H           1 A02       0.1815
    140 H73        16.5908   21.4225    2.6373 H           1 A02       0.1815
@<TRIPOS>BOND
     1     2     1  ar
     2     6     1  ar
     3     3     2  ar
     4     4     3  ar
     5     4     5  ar
     6    10     4   1
     7     5     6  ar
     8     8     5   1
     9     6     7   1
    10     9     8   2
    11    10     9   1
    12    19    10   1
    13    15    11   2
    14    16    12   1
    15    17    13   1
    16    18    14   1
    17    14    19   1
    18    15    18   1
    19    27    15  am
    20    16    17   1
    21    18    16   1
    22    17    19   1
    23    20    21   2
    24    20    22   1
    25    28    20  am
    26    22    23   1
    27    23    24   1
    28    24    25   1
    29    25    26   1
    30    26    27   1
    31    29    28   1
    32    30    29   1
    33    29    32   1
    34    30    31   2
    35    44    30  am
    36    32    33   1
    37    33    34   1
    38    34    35   1
    39    35    36   1
    40    37    38   2
    41    39    37   1
    42    37    45  am
    43    40    39   1
    44    41    40   1
    45    42    41   1
    46    43    42   1
    47    43    44   1
    48    45    46   1
    49    46    47   1
    50    46    54   1
    51    47    48   1
    52    48    49   1
    53    49    50   1
    54    50    51  ar
    55    51    52  ar
    56    51    53  ar
    57    54    55   2
    58    54    56  am
    59    56    57   1
    60    57    58   1
    61    57    65   1
    62    58    59   1
    63    59    60   1
    64    60    61   1
    65    61    62  ar
    66    62    63  ar
    67    62    64  ar
    68    65    66   2
    69    65    67  am
    70     2    68   1
    71     7    69   1
    72     7    70   1
    73     9    71   1
    74    12    72   1
    75    13    73   1
    76    16    74   1
    77    17    75   1
    78    18    76   1
    79    19    77   1
    80    22    78   1
    81    22    79   1
    82    23    80   1
    83    23    81   1
    84    24    82   1
    85    24    83   1
    86    25    84   1
    87    25    85   1
    88    26    86   1
    89    26    87   1
    90    27    88   1
    91    28    89   1
    92    29    90   1
    93    32    91   1
    94    32    92   1
    95    33    93   1
    96    33    94   1
    97    34    95   1
    98    34    96   1
    99    35    97   1
   100    35    98   1
   101    36    99   1
   102    36   100   1
   103    36   101   1
   104    39   102   1
   105    39   103   1
   106    40   104   1
   107    40   105   1
   108    41   106   1
   109    41   107   1
   110    42   108   1
   111    42   109   1
   112    43   110   1
   113    43   111   1
   114    44   112   1
   115    45   113   1
   116    46   114   1
   117    47   115   1
   118    47   116   1
   119    48   117   1
   120    48   118   1
   121    49   119   1
   122    49   120   1
   123    50   121   1
   124    52   122   1
   125    52   123   1
   126    53   124   1
   127    53   125   1
   128    56   126   1
   129    57   127   1
   130    58   128   1
   131    58   129   1
   132    59   130   1
   133    59   131   1
   134    60   132   1
   135    60   133   1
   136    61   134   1
   137    63   135   1
   138    63   136   1
   139    64   137   1
   140    64   138   1
   141    67   139   1
   142    67   140   1
@<TRIPOS>SUBSTRUCTURE
     1  A02      2

