@<TRIPOS>MOLECULE
3ag9_ligand_061
   140   142
SMALL
GAST_HUCK
****
This file was generated by PARSER (from files_GN.cpp)

@<TRIPOS>ATOM
      1 N1         14.5104    1.7304   13.8226 N.ar        1 A02      -0.2698
      2 C2         13.2472    1.9123   13.3436 C.ar        1 A02       0.0533
      3 N3         12.2290    2.2139   14.1943 N.ar        1 A02      -0.2714
      4 C4         12.4680    2.3108   15.5320 C.ar        1 A02       0.1613
      5 C5         13.7494    2.1020   16.0356 C.ar        1 A02       0.1045
      6 C6         14.7981    1.8088   15.1489 C.ar        1 A02       0.1298
      7 N6         16.0522    1.6234   15.5926 N.pl3       1 A02      -0.3152
      8 N7         13.7238    2.2438   17.3661 N.2         1 A02      -0.2958
      9 C8         12.4521    2.5392   17.6809 C.2         1 A02       0.1123
     10 N9         11.6714    2.6084   16.5775 N.pl3       1 A02      -0.1918
     11 OAL        10.9710    4.7785   13.9698 O.2         1 A02      -0.3941
     12 OAN         7.4989    4.1671   16.9894 O.3         1 A02      -0.3840
     13 OAO         9.7419    4.2460   18.6664 O.3         1 A02      -0.3834
     14 OBV         9.6678    2.9227   15.2843 O.3         1 A02      -0.3181
     15 CCC         9.8173    5.0894   14.2541 C.2         1 A02       0.2080
     16 CCK         8.6961    4.7432   16.4642 C.3         1 A02       0.1295
     17 CCL         9.9343    4.2854   17.2499 C.3         1 A02       0.1408
     18 CCM         9.0054    4.1821   15.0573 C.3         1 A02       0.1788
     19 CCN        10.2629    2.9149   16.6011 C.3         1 A02       0.2035
     20 CBZ        10.0012    4.1995    8.4360 C.2         1 A02       0.1782
     21 OAI         9.7912    5.1003    7.6308 O.2         1 A02      -0.3969
     22 CBG         9.3513    4.2383    9.7328 C.3         1 A02       0.0374
     23 CAX        10.3537    4.4593   10.9063 C.3         1 A02      -0.0360
     24 CAU        10.9196    5.9059   11.0400 C.3         1 A02      -0.0492
     25 CAW         9.9199    6.9862   11.5549 C.3         1 A02      -0.0326
     26 CBD         9.9740    7.2520   13.0823 C.3         1 A02       0.0310
     27 NBR         9.3055    6.2507   13.8495 N.am        1 A02      -0.2847
     28 NBS        10.8556    3.2173    8.1716 N.am        1 A02      -0.2656
     29 CCI        11.6795    3.0938    7.0005 C.3         1 A02       0.1308
     30 CCB        12.7554    4.0779    6.9757 C.2         1 A02       0.2016
     31 OAK        13.4089    4.2850    7.9966 O.2         1 A02      -0.3945
     32 CBJ        12.2192    1.6380    6.8415 C.3         1 A02      -0.0122
     33 CAZ        12.8586    1.0081    8.1162 C.3         1 A02      -0.0440
     34 CAS        14.0054    0.0011    7.8116 C.3         1 A02      -0.0124
     35 CAR        14.9165    0.4677    6.6539 C.3         1 A02      -0.0354
     36 NAC        16.1617   -0.3034    6.5635 N.4         1 A02       0.2185
     37 CCA        17.7259    6.8693    2.8913 C.2         1 A02       0.1782
     38 OAJ        17.4597    7.9963    3.2940 O.2         1 A02      -0.3969
     39 CBH        16.9550    6.3111    1.7931 C.3         1 A02       0.0374
     40 CAY        15.9893    5.1572    2.1895 C.3         1 A02      -0.0360
     41 CAT        14.8389    5.5165    3.1804 C.3         1 A02      -0.0492
     42 CAV        15.1584    5.2683    4.6810 C.3         1 A02      -0.0326
     43 CBC        14.0483    5.7333    5.6631 C.3         1 A02       0.0310
     44 NBQ        13.0422    4.7342    5.8483 N.am        1 A02      -0.2851
     45 NBT        18.6533    6.1243    3.4878 N.am        1 A02      -0.2656
     46 CCJ        19.3168    6.4271    4.7299 C.3         1 A02       0.1310
     47 CBK        20.5547    7.3694    4.5500 C.3         1 A02      -0.0092
     48 CBB        21.3677    7.6657    5.8538 C.3         1 A02      -0.0156
     49 CBF        20.7689    8.7232    6.8225 C.3         1 A02       0.0627
     50 NBP        19.3912    8.5809    7.0148 N.pl3       1 A02      -0.2723
     51 CBX        18.7643    7.8341    7.8536 C.cat       1 A02       0.2882
     52 NAB        19.3170    7.0862    8.7345 N.pl3       1 A02      -0.2849
     53 NAE        17.4840    7.8408    7.8043 N.pl3       1 A02      -0.2849
     54 CCD        19.6870    5.1830    5.4036 C.2         1 A02       0.2039
     55 OAM        20.6176    4.5024    4.9788 O.2         1 A02      -0.3944
     56 N          19.0457    4.8443    6.5188 N.am        1 A02      -0.2637
     57 CA         19.2828    3.7203    7.3789 C.3         1 A02       0.1307
     58 CB         18.0100    3.5666    8.2702 C.3         1 A02      -0.0092
     59 CG         18.0774    2.5327    9.4210 C.3         1 A02      -0.0156
     60 CD         18.5240    1.0990    9.0145 C.3         1 A02       0.0627
     61 NE         19.8791    0.8789    9.2862 N.pl3       1 A02      -0.2723
     62 CZ         20.4775   -0.2556    9.3166 C.cat       1 A02       0.2882
     63 NH1        21.7220   -0.2658    9.6006 N.pl3       1 A02      -0.2849
     64 NH2        19.8873   -1.3726    9.0878 N.pl3       1 A02      -0.2849
     65 C          20.5309    3.9535    8.0959 C.2         1 A02       0.1992
     66 O          21.6093    3.6694    7.5794 O.2         1 A02      -0.3947
     67 NAF        20.5673    4.4660    9.3054 N.am        1 A02      -0.2990
     68 H1         13.0700    1.8387   12.3439 H           1 A02       0.0996
     69 H2         16.2475    1.6888   16.5417 H           1 A02       0.1820
     70 H3         16.7675    1.4246   14.9671 H           1 A02       0.1820
     71 H4         12.1292    2.6944   18.6368 H           1 A02       0.1349
     72 H5          6.8181    4.3033   16.2965 H           1 A02       0.2102
     73 H6          9.4243    3.3458   18.8906 H           1 A02       0.2101
     74 H7          8.5895    5.8334   16.4724 H           1 A02       0.0673
     75 H8         10.7506    4.9875   17.0542 H           1 A02       0.0678
     76 H9          8.0751    3.9664   14.5215 H           1 A02       0.0869
     77 H10         9.7577    2.1302   17.1731 H           1 A02       0.0998
     78 H11         8.8299    3.2876    9.8827 H           1 A02       0.0502
     79 H12         8.5906    5.0240    9.7594 H           1 A02       0.0502
     80 H13        11.1974    3.7720   10.7749 H           1 A02       0.0290
     81 H14         9.8562    4.1709   11.8354 H           1 A02       0.0290
     82 H15        11.2988    6.2201   10.0630 H           1 A02       0.0267
     83 H16        11.7865    5.8725   11.7033 H           1 A02       0.0267
     84 H17         8.8984    6.7314   11.2665 H           1 A02       0.0285
     85 H18        10.1633    7.9282   11.0575 H           1 A02       0.0285
     86 H19         9.4708    8.1969   13.2888 H           1 A02       0.0520
     87 H20        11.0178    7.3761   13.3899 H           1 A02       0.0520
     88 H21         8.3785    6.4237   14.0821 H           1 A02       0.1851
     89 H22        10.9452    2.5200    8.8425 H           1 A02       0.1883
     90 H23        11.0295    3.2649    6.1364 H           1 A02       0.0800
     91 H24        12.9587    1.6368    6.0348 H           1 A02       0.0312
     92 H25        11.3919    0.9925    6.5268 H           1 A02       0.0312
     93 H26        12.0906    0.4903    8.6936 H           1 A02       0.0269
     94 H27        13.2796    1.7783    8.7625 H           1 A02       0.0269
     95 H28        13.5940   -0.9837    7.5816 H           1 A02       0.0317
     96 H29        14.6144   -0.1056    8.7179 H           1 A02       0.0317
     97 H30        15.2117    1.5084    6.7947 H           1 A02       0.0813
     98 H31        14.4052    0.3822    5.6928 H           1 A02       0.0813
     99 H32        16.7302    0.0718    5.7997 H           1 A02       0.1994
    100 H33        15.9553   -1.2898    6.3824 H           1 A02       0.1994
    101 H34        16.6841   -0.2236    7.4408 H           1 A02       0.1994
    102 H35        17.6627    5.9342    1.0500 H           1 A02       0.0502
    103 H36        16.3739    7.0964    1.3074 H           1 A02       0.0502
    104 H37        16.5648    4.3184    2.5883 H           1 A02       0.0290
    105 H38        15.5251    4.8034    1.2679 H           1 A02       0.0290
    106 H39        13.9715    4.9081    2.9171 H           1 A02       0.0267
    107 H40        14.5572    6.5625    3.0325 H           1 A02       0.0267
    108 H41        16.0664    5.8087    4.9440 H           1 A02       0.0285
    109 H42        15.3512    4.2038    4.8397 H           1 A02       0.0285
    110 H43        13.5750    6.6349    5.2709 H           1 A02       0.0520
    111 H44        14.5322    6.0094    6.6047 H           1 A02       0.0520
    112 H45        12.4862    4.5367    5.0742 H           1 A02       0.1851
    113 H46        18.7971    5.2291    3.1387 H           1 A02       0.1883
    114 H47        18.5931    6.9622    5.3551 H           1 A02       0.0800
    115 H48        20.2307    8.3266    4.1283 H           1 A02       0.0313
    116 H49        21.2345    6.9204    3.8170 H           1 A02       0.0313
    117 H50        22.3548    8.0301    5.5598 H           1 A02       0.0301
    118 H51        21.5357    6.7424    6.4107 H           1 A02       0.0301
    119 H52        20.9323    9.7159    6.3892 H           1 A02       0.0689
    120 H53        21.3078    8.6975    7.7794 H           1 A02       0.0689
    121 H54        18.8463    9.0960    6.4545 H           1 A02       0.2642
    122 H55        18.7943    6.5403    9.2857 H           1 A02       0.2615
    123 H56        20.2452    7.0624    8.8103 H           1 A02       0.2615
    124 H57        17.0445    8.3702    7.1742 H           1 A02       0.2615
    125 H58        16.9891    7.3097    8.3925 H           1 A02       0.2615
    126 H59        18.3503    5.4542    6.8162 H           1 A02       0.1883
    127 H60        19.3726    2.8016    6.7834 H           1 A02       0.0800
    128 H61        17.1604    3.3247    7.6192 H           1 A02       0.0313
    129 H62        17.7865    4.5373    8.7322 H           1 A02       0.0313
    130 H63        17.0666    2.4756    9.8365 H           1 A02       0.0301
    131 H64        18.7439    2.9227   10.2045 H           1 A02       0.0301
    132 H65        18.3222    0.9253    7.9498 H           1 A02       0.0689
    133 H66        17.9270    0.3902    9.6071 H           1 A02       0.0689
    134 H67        20.4044    1.6264    9.4939 H           1 A02       0.2642
    135 H68        22.1894   -1.0714    9.6468 H           1 A02       0.2615
    136 H69        22.1670    0.5449    9.7699 H           1 A02       0.2615
    137 H70        18.9770   -1.3906    8.8842 H           1 A02       0.2615
    138 H71        20.3642   -2.1728    9.1339 H           1 A02       0.2615
    139 H72        21.4213    4.6180    9.7478 H           1 A02       0.1815
    140 H73        19.7450    4.6708    9.7746 H           1 A02       0.1815
@<TRIPOS>BOND
     1     2     1  ar
     2     6     1  ar
     3     3     2  ar
     4     4     3  ar
     5     4     5  ar
     6    10     4   1
     7     5     6  ar
     8     8     5   1
     9     6     7   1
    10     9     8   2
    11    10     9   1
    12    19    10   1
    13    15    11   2
    14    16    12   1
    15    17    13   1
    16    18    14   1
    17    14    19   1
    18    15    18   1
    19    27    15  am
    20    16    17   1
    21    18    16   1
    22    17    19   1
    23    20    21   2
    24    20    22   1
    25    28    20  am
    26    22    23   1
    27    23    24   1
    28    24    25   1
    29    25    26   1
    30    26    27   1
    31    29    28   1
    32    30    29   1
    33    29    32   1
    34    30    31   2
    35    44    30  am
    36    32    33   1
    37    33    34   1
    38    34    35   1
    39    35    36   1
    40    37    38   2
    41    39    37   1
    42    37    45  am
    43    40    39   1
    44    41    40   1
    45    42    41   1
    46    43    42   1
    47    43    44   1
    48    45    46   1
    49    46    47   1
    50    46    54   1
    51    47    48   1
    52    48    49   1
    53    49    50   1
    54    50    51  ar
    55    51    52  ar
    56    51    53  ar
    57    54    55   2
    58    54    56  am
    59    56    57   1
    60    57    58   1
    61    57    65   1
    62    58    59   1
    63    59    60   1
    64    60    61   1
    65    61    62  ar
    66    62    63  ar
    67    62    64  ar
    68    65    66   2
    69    65    67  am
    70     2    68   1
    71     7    69   1
    72     7    70   1
    73     9    71   1
    74    12    72   1
    75    13    73   1
    76    16    74   1
    77    17    75   1
    78    18    76   1
    79    19    77   1
    80    22    78   1
    81    22    79   1
    82    23    80   1
    83    23    81   1
    84    24    82   1
    85    24    83   1
    86    25    84   1
    87    25    85   1
    88    26    86   1
    89    26    87   1
    90    27    88   1
    91    28    89   1
    92    29    90   1
    93    32    91   1
    94    32    92   1
    95    33    93   1
    96    33    94   1
    97    34    95   1
    98    34    96   1
    99    35    97   1
   100    35    98   1
   101    36    99   1
   102    36   100   1
   103    36   101   1
   104    39   102   1
   105    39   103   1
   106    40   104   1
   107    40   105   1
   108    41   106   1
   109    41   107   1
   110    42   108   1
   111    42   109   1
   112    43   110   1
   113    43   111   1
   114    44   112   1
   115    45   113   1
   116    46   114   1
   117    47   115   1
   118    47   116   1
   119    48   117   1
   120    48   118   1
   121    49   119   1
   122    49   120   1
   123    50   121   1
   124    52   122   1
   125    52   123   1
   126    53   124   1
   127    53   125   1
   128    56   126   1
   129    57   127   1
   130    58   128   1
   131    58   129   1
   132    59   130   1
   133    59   131   1
   134    60   132   1
   135    60   133   1
   136    61   134   1
   137    63   135   1
   138    63   136   1
   139    64   137   1
   140    64   138   1
   141    67   139   1
   142    67   140   1
@<TRIPOS>SUBSTRUCTURE
     1  A02      2

