@<TRIPOS>MOLECULE
3ag9_ligand_074
   140   142
SMALL
GAST_HUCK
****
This file was generated by PARSER (from files_GN.cpp)

@<TRIPOS>ATOM
      1 N1         10.8520    2.6395   15.4275 N.ar        1 A02      -0.2698
      2 C2         10.5066    3.0589   14.1770 C.ar        1 A02       0.0533
      3 N3          9.3467    3.7470   13.9824 N.ar        1 A02      -0.2714
      4 C4          8.5240    4.0084   15.0315 C.ar        1 A02       0.1613
      5 C5          8.8594    3.5808   16.3144 C.ar        1 A02       0.1045
      6 C6         10.0657    2.8811   16.5127 C.ar        1 A02       0.1298
      7 N6         10.4416    2.4528   17.7287 N.pl3       1 A02      -0.3152
      8 N7          7.8906    3.9544   17.1587 N.2         1 A02      -0.2958
      9 C8          6.9748    4.6010   16.4163 C.2         1 A02       0.1123
     10 N9          7.3436    4.6552   15.1178 N.pl3       1 A02      -0.1918
     11 OAL         7.4585    7.1125    9.9896 O.2         1 A02      -0.3941
     12 OAN         5.1031    7.7915   12.5338 O.3         1 A02      -0.3840
     13 OAO         5.8268    7.4526   15.0830 O.3         1 A02      -0.3834
     14 OBV         7.0845    4.9785   12.7658 O.3         1 A02      -0.3181
     15 CCC         7.5616    6.1319   10.7205 C.2         1 A02       0.2080
     16 CCK         6.4336    7.2886   12.6898 C.3         1 A02       0.1295
     17 CCL         6.7186    6.8505   14.1384 C.3         1 A02       0.1408
     18 CCM         6.6416    5.9944   11.8458 C.3         1 A02       0.1788
     19 CCN         6.6021    5.3125   14.0751 C.3         1 A02       0.2035
     20 CBZ        13.8000    5.1495    6.7042 C.2         1 A02       0.1782
     21 OAI        13.7055    6.3463    6.4541 O.2         1 A02      -0.3969
     22 CBG        12.7416    4.2736    6.2256 C.3         1 A02       0.0374
     23 CAX        11.4152    4.4260    7.0282 C.3         1 A02      -0.0360
     24 CAU        11.4984    3.9346    8.5013 C.3         1 A02      -0.0492
     25 CAW        10.1488    3.8521    9.2602 C.3         1 A02      -0.0326
     26 CBD         9.3640    5.1884    9.3495 C.3         1 A02       0.0310
     27 NBR         8.3877    5.1416   10.3975 N.am        1 A02      -0.2847
     28 NBS        14.7291    4.6807    7.5337 N.am        1 A02      -0.2656
     29 CCI        15.6330    5.4386    8.3688 C.3         1 A02       0.1308
     30 CCB        16.7399    6.0423    7.6276 C.2         1 A02       0.2016
     31 OAK        16.4908    6.7140    6.6340 O.2         1 A02      -0.3945
     32 CBJ        14.8589    6.4642    9.2657 C.3         1 A02      -0.0122
     33 CAZ        15.4273    6.7025   10.6926 C.3         1 A02      -0.0440
     34 CAS        14.3603    7.1599   11.7326 C.3         1 A02      -0.0124
     35 CAR        13.4598    8.3521   11.3196 C.3         1 A02      -0.0354
     36 NAC        14.2343    9.4660   10.7627 N.4         1 A02       0.2185
     37 CCA        19.3031   11.0073    4.1742 C.2         1 A02       0.1782
     38 OAJ        20.1983   11.1902    3.3539 O.2         1 A02      -0.3969
     39 CBH        19.6551   10.4950    5.4899 C.3         1 A02       0.0374
     40 CAY        20.3143    9.0829    5.4508 C.3         1 A02      -0.0360
     41 CAT        20.5915    8.5146    6.8763 C.3         1 A02      -0.0492
     42 CAV        19.3262    7.9407    7.5871 C.3         1 A02      -0.0326
     43 CBC        19.1664    6.4055    7.4097 C.3         1 A02       0.0310
     44 NBQ        17.9937    5.8916    8.0482 N.am        1 A02      -0.2851
     45 NBT        18.0331   11.3042    3.9159 N.am        1 A02      -0.2656
     46 CCJ        17.4848   11.8950    2.7309 C.3         1 A02       0.1310
     47 CBK        17.6138   10.9531    1.4821 C.3         1 A02      -0.0092
     48 CBB        16.8543    9.5910    1.5432 C.3         1 A02      -0.0156
     49 CBF        17.5193    8.5066    2.4392 C.3         1 A02       0.0627
     50 NBP        16.8559    7.2744    2.3872 N.pl3       1 A02      -0.2723
     51 CBX        16.9158    6.3835    1.4725 C.cat       1 A02       0.2882
     52 NAB        17.6332    6.4681    0.4105 N.pl3       1 A02      -0.2849
     53 NAE        16.2194    5.3286    1.6236 N.pl3       1 A02      -0.2849
     54 CCD        17.9946   13.2546    2.5542 C.2         1 A02       0.2039
     55 OAM        18.6254   13.5267    1.5396 O.2         1 A02      -0.3944
     56 N          17.7578   14.1716    3.4859 N.am        1 A02      -0.2637
     57 CA         18.1189   15.5665    3.4387 C.3         1 A02       0.1307
     58 CB         19.0062   15.9309    4.6712 C.3         1 A02      -0.0092
     59 CG         18.2894   16.0011    6.0604 C.3         1 A02      -0.0156
     60 CD         18.6786   17.2567    6.8856 C.3         1 A02       0.0627
     61 NE         18.0459   17.2858    8.1305 N.pl3       1 A02      -0.2723
     62 CZ         18.1546   18.2033    9.0232 C.cat       1 A02       0.2882
     63 NH1        18.8659   19.2561    8.9270 N.pl3       1 A02      -0.2849
     64 NH2        17.4948   18.0732   10.1072 N.pl3       1 A02      -0.2849
     65 C          16.9429   16.4238    3.3094 C.2         1 A02       0.1992
     66 O          15.8025   15.9833    3.3606 O.2         1 A02      -0.3947
     67 NAF        17.0722   17.7197    3.1309 N.am        1 A02      -0.2990
     68 H1         11.1134    2.8529   13.3830 H           1 A02       0.0996
     69 H2          9.8701    2.5947   18.5038 H           1 A02       0.1820
     70 H3         11.2901    1.9910   17.8366 H           1 A02       0.1820
     71 H4          6.1175    4.9968   16.8037 H           1 A02       0.1349
     72 H5          5.0338    8.0378   11.5880 H           1 A02       0.2102
     73 H6          6.1717    7.2332   15.9759 H           1 A02       0.2101
     74 H7          7.1317    8.0887   12.4176 H           1 A02       0.0673
     75 H8          7.7453    7.1317   14.4042 H           1 A02       0.0678
     76 H9          5.6799    5.6703   11.4330 H           1 A02       0.0869
     77 H10         5.5508    5.0078   14.1393 H           1 A02       0.0998
     78 H11        13.0609    3.2277    6.2569 H           1 A02       0.0502
     79 H12        12.5488    4.5104    5.1743 H           1 A02       0.0502
     80 H13        10.6426    3.8454    6.5187 H           1 A02       0.0290
     81 H14        11.1064    5.4756    7.0080 H           1 A02       0.0290
     82 H15        12.1555    4.5952    9.0651 H           1 A02       0.0267
     83 H16        11.9503    2.9402    8.5102 H           1 A02       0.0267
     84 H17        10.3689    3.5017   10.2730 H           1 A02       0.0285
     85 H18         9.5168    3.0988    8.7836 H           1 A02       0.0285
     86 H19         8.8655    5.3746    8.3936 H           1 A02       0.0520
     87 H20        10.0487    6.0165    9.5518 H           1 A02       0.0520
     88 H21         8.3484    4.3321   10.9340 H           1 A02       0.1851
     89 H22        14.7046    3.7265    7.7063 H           1 A02       0.1883
     90 H23        16.0475    4.6810    9.0416 H           1 A02       0.0800
     91 H24        13.8377    6.0995    9.3867 H           1 A02       0.0312
     92 H25        14.7924    7.4308    8.7520 H           1 A02       0.0312
     93 H26        16.2317    7.4448   10.6378 H           1 A02       0.0269
     94 H27        15.8613    5.7723   11.0683 H           1 A02       0.0269
     95 H28        14.8789    7.4226   12.6560 H           1 A02       0.0317
     96 H29        13.7083    6.3124   11.9601 H           1 A02       0.0317
     97 H30        12.9197    8.7131   12.1969 H           1 A02       0.0813
     98 H31        12.7227    8.0391   10.5772 H           1 A02       0.0813
     99 H32        13.6422   10.3018   10.7105 H           1 A02       0.1994
    100 H33        14.5624    9.2181    9.8239 H           1 A02       0.1994
    101 H34        15.0418    9.6526   11.3638 H           1 A02       0.1994
    102 H35        18.7643   10.4407    6.1257 H           1 A02       0.0502
    103 H36        20.3516   11.2037    5.9589 H           1 A02       0.0502
    104 H37        21.2675    9.1557    4.9144 H           1 A02       0.0290
    105 H38        19.6763    8.3824    4.8977 H           1 A02       0.0290
    106 H39        21.0229    9.3060    7.5002 H           1 A02       0.0267
    107 H40        21.3544    7.7317    6.8033 H           1 A02       0.0267
    108 H41        18.4273    8.4396    7.2153 H           1 A02       0.0285
    109 H42        19.3962    8.1534    8.6596 H           1 A02       0.0285
    110 H43        20.0270    5.9057    7.8647 H           1 A02       0.0520
    111 H44        19.1472    6.1399    6.3485 H           1 A02       0.0520
    112 H45        18.1287    5.3935    8.8708 H           1 A02       0.1851
    113 H46        17.3966   11.1264    4.6292 H           1 A02       0.1883
    114 H47        16.4107   11.9846    2.9105 H           1 A02       0.0800
    115 H48        18.6665   10.7552    1.2566 H           1 A02       0.0313
    116 H49        17.1991   11.4884    0.6197 H           1 A02       0.0313
    117 H50        16.7921    9.1954    0.5195 H           1 A02       0.0301
    118 H51        15.8263    9.7570    1.8847 H           1 A02       0.0301
    119 H52        17.4759    8.8351    3.4774 H           1 A02       0.0689
    120 H53        18.5729    8.3838    2.1683 H           1 A02       0.0689
    121 H54        16.3095    7.0726    3.1203 H           1 A02       0.2642
    122 H55        17.6264    5.7714   -0.2125 H           1 A02       0.2615
    123 H56        18.1622    7.2209    0.2578 H           1 A02       0.2615
    124 H57        15.6820    5.2258    2.3827 H           1 A02       0.2615
    125 H58        16.2354    4.6508    0.9782 H           1 A02       0.2615
    126 H59        17.2412   13.8797    4.2537 H           1 A02       0.1883
    127 H60        18.7316   15.7615    2.5511 H           1 A02       0.0800
    128 H61        19.4879   16.8894    4.4522 H           1 A02       0.0313
    129 H62        19.8207   15.2006    4.7357 H           1 A02       0.0313
    130 H63        18.5352   15.1029    6.6325 H           1 A02       0.0301
    131 H64        17.2058   16.0051    5.9276 H           1 A02       0.0301
    132 H65        18.3936   18.1457    6.3191 H           1 A02       0.0689
    133 H66        19.7617   17.2682    7.0273 H           1 A02       0.0689
    134 H67        17.4785   16.5737    8.3400 H           1 A02       0.2642
    135 H68        18.8745   19.8706    9.6355 H           1 A02       0.2615
    136 H69        19.3775   19.4254    8.1633 H           1 A02       0.2615
    137 H70        16.9534   17.3257   10.2474 H           1 A02       0.2615
    138 H71        17.5555   18.7376   10.7667 H           1 A02       0.2615
    139 H72        16.2818   18.2793    3.0592 H           1 A02       0.1815
    140 H73        17.9562   18.1189    3.0729 H           1 A02       0.1815
@<TRIPOS>BOND
     1     2     1  ar
     2     6     1  ar
     3     3     2  ar
     4     4     3  ar
     5     4     5  ar
     6    10     4   1
     7     5     6  ar
     8     8     5   1
     9     6     7   1
    10     9     8   2
    11    10     9   1
    12    19    10   1
    13    15    11   2
    14    16    12   1
    15    17    13   1
    16    18    14   1
    17    14    19   1
    18    15    18   1
    19    27    15  am
    20    16    17   1
    21    18    16   1
    22    17    19   1
    23    20    21   2
    24    20    22   1
    25    28    20  am
    26    22    23   1
    27    23    24   1
    28    24    25   1
    29    25    26   1
    30    26    27   1
    31    29    28   1
    32    30    29   1
    33    29    32   1
    34    30    31   2
    35    44    30  am
    36    32    33   1
    37    33    34   1
    38    34    35   1
    39    35    36   1
    40    37    38   2
    41    39    37   1
    42    37    45  am
    43    40    39   1
    44    41    40   1
    45    42    41   1
    46    43    42   1
    47    43    44   1
    48    45    46   1
    49    46    47   1
    50    46    54   1
    51    47    48   1
    52    48    49   1
    53    49    50   1
    54    50    51  ar
    55    51    52  ar
    56    51    53  ar
    57    54    55   2
    58    54    56  am
    59    56    57   1
    60    57    58   1
    61    57    65   1
    62    58    59   1
    63    59    60   1
    64    60    61   1
    65    61    62  ar
    66    62    63  ar
    67    62    64  ar
    68    65    66   2
    69    65    67  am
    70     2    68   1
    71     7    69   1
    72     7    70   1
    73     9    71   1
    74    12    72   1
    75    13    73   1
    76    16    74   1
    77    17    75   1
    78    18    76   1
    79    19    77   1
    80    22    78   1
    81    22    79   1
    82    23    80   1
    83    23    81   1
    84    24    82   1
    85    24    83   1
    86    25    84   1
    87    25    85   1
    88    26    86   1
    89    26    87   1
    90    27    88   1
    91    28    89   1
    92    29    90   1
    93    32    91   1
    94    32    92   1
    95    33    93   1
    96    33    94   1
    97    34    95   1
    98    34    96   1
    99    35    97   1
   100    35    98   1
   101    36    99   1
   102    36   100   1
   103    36   101   1
   104    39   102   1
   105    39   103   1
   106    40   104   1
   107    40   105   1
   108    41   106   1
   109    41   107   1
   110    42   108   1
   111    42   109   1
   112    43   110   1
   113    43   111   1
   114    44   112   1
   115    45   113   1
   116    46   114   1
   117    47   115   1
   118    47   116   1
   119    48   117   1
   120    48   118   1
   121    49   119   1
   122    49   120   1
   123    50   121   1
   124    52   122   1
   125    52   123   1
   126    53   124   1
   127    53   125   1
   128    56   126   1
   129    57   127   1
   130    58   128   1
   131    58   129   1
   132    59   130   1
   133    59   131   1
   134    60   132   1
   135    60   133   1
   136    61   134   1
   137    63   135   1
   138    63   136   1
   139    64   137   1
   140    64   138   1
   141    67   139   1
   142    67   140   1
@<TRIPOS>SUBSTRUCTURE
     1  A02      2

