@<TRIPOS>MOLECULE
3ag9_ligand_080
   140   142
SMALL
GAST_HUCK
****
This file was generated by PARSER (from files_GN.cpp)

@<TRIPOS>ATOM
      1 N1         14.4553    2.5346   13.4634 N.ar        1 A02      -0.2698
      2 C2         13.7765    2.4328   14.6433 C.ar        1 A02       0.0533
      3 N3         12.4515    2.7541   14.7025 N.ar        1 A02      -0.2714
      4 C4         11.7952    3.1569   13.5833 C.ar        1 A02       0.1613
      5 C5         12.4726    3.2389   12.3648 C.ar        1 A02       0.1045
      6 C6         13.8484    2.9382   12.3182 C.ar        1 A02       0.1298
      7 N6         14.5561    3.0662   11.1863 N.pl3       1 A02      -0.3152
      8 N7         11.6038    3.5867   11.4144 N.2         1 A02      -0.2958
      9 C8         10.4283    3.7305   12.0232 C.2         1 A02       0.1123
     10 N9         10.5143    3.5161   13.3544 N.pl3       1 A02      -0.1918
     11 OAL         5.2337    5.4266   14.8996 O.2         1 A02      -0.3941
     12 OAN         7.7867    5.0048   17.0223 O.3         1 A02      -0.3840
     13 OAO        10.3267    4.3539   16.5218 O.3         1 A02      -0.3834
     14 OBV         8.1917    3.9639   13.6779 O.3         1 A02      -0.3181
     15 CCC         6.1718    5.1963   14.1431 C.2         1 A02       0.2080
     16 CCK         8.1843    5.2546   15.6697 C.3         1 A02       0.1295
     17 CCL         9.6255    4.7838   15.3536 C.3         1 A02       0.1408
     18 CCM         7.3000    4.4501   14.6867 C.3         1 A02       0.1788
     19 CCN         9.4428    3.6448   14.3163 C.3         1 A02       0.2035
     20 CBZ         8.1177    8.9722    9.5529 C.2         1 A02       0.1782
     21 OAI         7.5801    8.0747    8.9089 O.2         1 A02      -0.3969
     22 CBG         7.3250   10.0997   10.0065 C.3         1 A02       0.0374
     23 CAX         5.8871    9.7796   10.5134 C.3         1 A02      -0.0360
     24 CAU         5.7350    8.6948   11.6320 C.3         1 A02      -0.0492
     25 CAW         5.3531    7.2700   11.1220 C.3         1 A02      -0.0326
     26 CBD         5.0105    6.2492   12.2505 C.3         1 A02       0.0310
     27 NBR         6.1488    5.6473   12.8896 N.am        1 A02      -0.2847
     28 NBS         9.4275    8.9651    9.7687 N.am        1 A02      -0.2656
     29 CCI        10.3473    7.8896    9.5085 C.3         1 A02       0.1308
     30 CCB        11.7277    8.3908    9.4830 C.2         1 A02       0.2016
     31 OAK        12.6796    7.6263    9.6004 O.2         1 A02      -0.3945
     32 CBJ        10.0837    6.6594   10.4522 C.3         1 A02      -0.0122
     33 CAZ         9.2112    6.8420   11.7435 C.3         1 A02      -0.0440
     34 CAS         9.5266    7.9877   12.7555 C.3         1 A02      -0.0124
     35 CAR        11.0300    8.2563   13.0457 C.3         1 A02      -0.0354
     36 NAC        11.2762    9.6993   13.1183 N.4         1 A02       0.2185
     37 CCA        13.9818   12.0827    4.2325 C.2         1 A02       0.1782
     38 OAJ        14.1265   12.1592    3.0177 O.2         1 A02      -0.3969
     39 CBH        13.8873   10.7611    4.8426 C.3         1 A02       0.0374
     40 CAY        12.5408   10.4186    5.5392 C.3         1 A02      -0.0360
     41 CAT        12.0799   11.3725    6.6696 C.3         1 A02      -0.0492
     42 CAV        13.0096   11.5066    7.9154 C.3         1 A02      -0.0326
     43 CBC        13.2091   10.2184    8.7502 C.3         1 A02       0.0310
     44 NBQ        11.9487    9.6265    9.0705 N.am        1 A02      -0.2851
     45 NBT        14.0492   13.1726    4.9968 N.am        1 A02      -0.2656
     46 CCJ        14.3903   14.5215    4.6347 C.3         1 A02       0.1310
     47 CBK        13.4982   15.1493    3.5042 C.3         1 A02      -0.0092
     48 CBB        12.2380   15.9519    3.9500 C.3         1 A02      -0.0156
     49 CBF        11.0203   15.1545    4.4974 C.3         1 A02       0.0627
     50 NBP        11.1720   14.7626    5.8307 N.pl3       1 A02      -0.2723
     51 CBX        10.2682   14.2474    6.5846 C.cat       1 A02       0.2882
     52 NAB         9.0644   14.0056    6.2170 N.pl3       1 A02      -0.2849
     53 NAE        10.5911   13.9336    7.7812 N.pl3       1 A02      -0.2849
     54 CCD        15.8401   14.5684    4.4337 C.2         1 A02       0.2039
     55 OAM        16.3195   14.6725    3.3127 O.2         1 A02      -0.3944
     56 N          16.6293   14.4353    5.5030 N.am        1 A02      -0.2637
     57 CA         18.0696   14.3714    5.6163 C.3         1 A02       0.1307
     58 CB         18.7864   15.6887    5.1559 C.3         1 A02      -0.0092
     59 CG         18.6416   16.8672    6.1741 C.3         1 A02      -0.0156
     60 CD         19.1658   16.5465    7.6175 C.3         1 A02       0.0627
     61 NE         18.2416   16.9440    8.5909 N.pl3       1 A02      -0.2723
     62 CZ         18.2097   18.0342    9.2723 C.cat       1 A02       0.2882
     63 NH1        19.0276   19.0241    9.1509 N.pl3       1 A02      -0.2849
     64 NH2        17.2882   18.1597   10.1389 N.pl3       1 A02      -0.2849
     65 C          18.6591   13.1950    4.9585 C.2         1 A02       0.1992
     66 O          18.3497   12.8581    3.8174 O.2         1 A02      -0.3947
     67 NAF        19.6121   12.5022    5.5390 N.am        1 A02      -0.2990
     68 H1         14.2668    2.1273   15.4822 H           1 A02       0.0996
     69 H2         14.1311    3.3875   10.3744 H           1 A02       0.1820
     70 H3         15.5071    2.8767   11.1882 H           1 A02       0.1820
     71 H4          9.5633    3.9788   11.5168 H           1 A02       0.1349
     72 H5          8.2566    5.6803   17.5542 H           1 A02       0.2102
     73 H6         11.2470    4.1964   16.2283 H           1 A02       0.2101
     74 H7          8.1034    6.3320   15.4868 H           1 A02       0.0673
     75 H8         10.1851    5.6107   14.9063 H           1 A02       0.0678
     76 H9          6.9065    3.5602   15.1948 H           1 A02       0.0869
     77 H10         9.3314    2.6873   14.8344 H           1 A02       0.0998
     78 H11         7.2401   10.7956    9.1670 H           1 A02       0.0502
     79 H12         7.8538   10.6334   10.8057 H           1 A02       0.0502
     80 H13         5.2629    9.5187    9.6533 H           1 A02       0.0290
     81 H14         5.4848   10.7214   10.9029 H           1 A02       0.0290
     82 H15         4.9370    9.0231   12.3057 H           1 A02       0.0267
     83 H16         6.6456    8.6409   12.2308 H           1 A02       0.0267
     84 H17         6.1434    6.8645   10.4914 H           1 A02       0.0285
     85 H18         4.4642    7.3711   10.4905 H           1 A02       0.0285
     86 H19         4.4272    5.4356   11.8104 H           1 A02       0.0520
     87 H20         4.3778    6.7432   12.9913 H           1 A02       0.0520
     88 H21         6.9315    5.4821   12.3430 H           1 A02       0.1851
     89 H22         9.8063    9.7655   10.1717 H           1 A02       0.1883
     90 H23        10.1743    7.5631    8.4774 H           1 A02       0.0800
     91 H24        11.0214    6.1966   10.7602 H           1 A02       0.0312
     92 H25         9.5777    5.8923    9.8532 H           1 A02       0.0312
     93 H26         9.2140    5.9145   12.3008 H           1 A02       0.0269
     94 H27         8.1875    6.9926   11.4063 H           1 A02       0.0269
     95 H28         9.0344    7.7316   13.6962 H           1 A02       0.0317
     96 H29         9.0391    8.8997   12.4088 H           1 A02       0.0317
     97 H30        11.6779    7.8489   12.2755 H           1 A02       0.0813
     98 H31        11.3146    7.7959   13.9954 H           1 A02       0.0813
     99 H32        12.2796    9.8748   13.1812 H           1 A02       0.1994
    100 H33        10.8042   10.0820   13.9387 H           1 A02       0.1994
    101 H34        10.9198   10.1470   12.2672 H           1 A02       0.1994
    102 H35        14.7060   10.6435    5.5561 H           1 A02       0.0502
    103 H36        14.0381    9.9896    4.0799 H           1 A02       0.0502
    104 H37        12.6038    9.4058    5.9475 H           1 A02       0.0290
    105 H38        11.7554   10.4047    4.7765 H           1 A02       0.0290
    106 H39        11.0815   11.0634    6.9914 H           1 A02       0.0267
    107 H40        11.9511   12.3531    6.2338 H           1 A02       0.0267
    108 H41        12.5759   12.2656    8.5731 H           1 A02       0.0285
    109 H42        13.9877   11.8781    7.5999 H           1 A02       0.0285
    110 H43        13.7406   10.4704    9.6712 H           1 A02       0.0520
    111 H44        13.8214    9.5137    8.1819 H           1 A02       0.0520
    112 H45        11.1671   10.1818    8.9401 H           1 A02       0.1851
    113 H46        13.9634   13.0209    5.9492 H           1 A02       0.1883
    114 H47        14.2061   15.1323    5.5256 H           1 A02       0.0800
    115 H48        13.1865   14.3884    2.7865 H           1 A02       0.0313
    116 H49        14.1076   15.8665    2.9444 H           1 A02       0.0313
    117 H50        11.8852   16.4848    3.0604 H           1 A02       0.0301
    118 H51        12.5288   16.7167    4.6738 H           1 A02       0.0301
    119 H52        10.8303   14.2825    3.8629 H           1 A02       0.0689
    120 H53        10.1456   15.8123    4.4364 H           1 A02       0.0689
    121 H54        12.0167   14.8869    6.2128 H           1 A02       0.2642
    122 H55         8.4664   13.6140    6.8156 H           1 A02       0.2615
    123 H56         8.7884   14.2096    5.3483 H           1 A02       0.2615
    124 H57        11.4657   14.0757    8.0775 H           1 A02       0.2615
    125 H58         9.9678   13.5342    8.3479 H           1 A02       0.2615
    126 H59        16.1693   14.3872    6.3563 H           1 A02       0.1883
    127 H60        18.2372   14.2780    6.6785 H           1 A02       0.0800
    128 H61        18.3854   16.0137    4.1947 H           1 A02       0.0313
    129 H62        19.8574   15.5107    5.0063 H           1 A02       0.0313
    130 H63        17.5855   17.1610    6.1898 H           1 A02       0.0301
    131 H64        19.2046   17.7238    5.7791 H           1 A02       0.0301
    132 H65        20.1609   17.0230    7.7556 H           1 A02       0.0689
    133 H66        19.2923   15.4789    7.7556 H           1 A02       0.0689
    134 H67        17.5732   16.3151    8.7942 H           1 A02       0.2642
    135 H68        18.9048   19.7618    9.7039 H           1 A02       0.2615
    136 H69        19.7322   19.0020    8.5479 H           1 A02       0.2615
    137 H70        16.6758   17.4662   10.2775 H           1 A02       0.2615
    138 H71        17.2378   18.9532   10.6246 H           1 A02       0.2615
    139 H72        20.0142   11.7561    5.0644 H           1 A02       0.1815
    140 H73        19.9538   12.7466    6.4194 H           1 A02       0.1815
@<TRIPOS>BOND
     1     2     1  ar
     2     6     1  ar
     3     3     2  ar
     4     4     3  ar
     5     4     5  ar
     6    10     4   1
     7     5     6  ar
     8     8     5   1
     9     6     7   1
    10     9     8   2
    11    10     9   1
    12    19    10   1
    13    15    11   2
    14    16    12   1
    15    17    13   1
    16    18    14   1
    17    14    19   1
    18    15    18   1
    19    27    15  am
    20    16    17   1
    21    18    16   1
    22    17    19   1
    23    20    21   2
    24    20    22   1
    25    28    20  am
    26    22    23   1
    27    23    24   1
    28    24    25   1
    29    25    26   1
    30    26    27   1
    31    29    28   1
    32    30    29   1
    33    29    32   1
    34    30    31   2
    35    44    30  am
    36    32    33   1
    37    33    34   1
    38    34    35   1
    39    35    36   1
    40    37    38   2
    41    39    37   1
    42    37    45  am
    43    40    39   1
    44    41    40   1
    45    42    41   1
    46    43    42   1
    47    43    44   1
    48    45    46   1
    49    46    47   1
    50    46    54   1
    51    47    48   1
    52    48    49   1
    53    49    50   1
    54    50    51  ar
    55    51    52  ar
    56    51    53  ar
    57    54    55   2
    58    54    56  am
    59    56    57   1
    60    57    58   1
    61    57    65   1
    62    58    59   1
    63    59    60   1
    64    60    61   1
    65    61    62  ar
    66    62    63  ar
    67    62    64  ar
    68    65    66   2
    69    65    67  am
    70     2    68   1
    71     7    69   1
    72     7    70   1
    73     9    71   1
    74    12    72   1
    75    13    73   1
    76    16    74   1
    77    17    75   1
    78    18    76   1
    79    19    77   1
    80    22    78   1
    81    22    79   1
    82    23    80   1
    83    23    81   1
    84    24    82   1
    85    24    83   1
    86    25    84   1
    87    25    85   1
    88    26    86   1
    89    26    87   1
    90    27    88   1
    91    28    89   1
    92    29    90   1
    93    32    91   1
    94    32    92   1
    95    33    93   1
    96    33    94   1
    97    34    95   1
    98    34    96   1
    99    35    97   1
   100    35    98   1
   101    36    99   1
   102    36   100   1
   103    36   101   1
   104    39   102   1
   105    39   103   1
   106    40   104   1
   107    40   105   1
   108    41   106   1
   109    41   107   1
   110    42   108   1
   111    42   109   1
   112    43   110   1
   113    43   111   1
   114    44   112   1
   115    45   113   1
   116    46   114   1
   117    47   115   1
   118    47   116   1
   119    48   117   1
   120    48   118   1
   121    49   119   1
   122    49   120   1
   123    50   121   1
   124    52   122   1
   125    52   123   1
   126    53   124   1
   127    53   125   1
   128    56   126   1
   129    57   127   1
   130    58   128   1
   131    58   129   1
   132    59   130   1
   133    59   131   1
   134    60   132   1
   135    60   133   1
   136    61   134   1
   137    63   135   1
   138    63   136   1
   139    64   137   1
   140    64   138   1
   141    67   139   1
   142    67   140   1
@<TRIPOS>SUBSTRUCTURE
     1  A02      2

