@<TRIPOS>MOLECULE
3ag9_ligand_090
   140   142
SMALL
GAST_HUCK
****
This file was generated by PARSER (from files_GN.cpp)

@<TRIPOS>ATOM
      1 N1          6.0621    9.0819   14.2238 N.ar        1 A02      -0.2698
      2 C2          6.9377    8.9739   15.2600 C.ar        1 A02       0.0533
      3 N3          7.5300    7.7802   15.5360 N.ar        1 A02      -0.2714
      4 C4          7.2322    6.6953   14.7849 C.ar        1 A02       0.1613
      5 C5          6.3413    6.7788   13.7176 C.ar        1 A02       0.1045
      6 C6          5.7415    8.0171   13.4360 C.ar        1 A02       0.1298
      7 N6          4.8898    8.1696   12.4111 N.pl3       1 A02      -0.3152
      8 N7          6.2704    5.5780   13.1311 N.2         1 A02      -0.2958
      9 C8          7.1001    4.7729   13.8202 C.2         1 A02       0.1123
     10 N9          7.6867    5.4310   14.8484 N.pl3       1 A02      -0.1918
     11 OAL        10.6858    2.9874   13.6291 O.2         1 A02      -0.3941
     12 OAN        10.4367    3.5622   17.8787 O.3         1 A02      -0.3840
     13 OAO         7.7906    3.2459   17.2201 O.3         1 A02      -0.3834
     14 OBV         9.9842    5.2811   15.2120 O.3         1 A02      -0.3181
     15 CCC        11.4153    3.7091   14.2985 C.2         1 A02       0.2080
     16 CCK        10.1784    3.2503   16.5038 C.3         1 A02       0.1295
     17 CCL         8.7026    3.4919   16.1496 C.3         1 A02       0.1408
     18 CCM        10.9142    4.2460   15.5634 C.3         1 A02       0.1788
     19 CCN         8.6991    4.9852   15.7683 C.3         1 A02       0.2035
     20 CBZ        15.8428    4.7603    8.1155 C.2         1 A02       0.1782
     21 OAI        15.1800    4.7938    7.0804 O.2         1 A02      -0.3969
     22 CBG        16.0460    3.4855    8.7876 C.3         1 A02       0.0374
     23 CAX        15.0672    3.2068    9.9715 C.3         1 A02      -0.0360
     24 CAU        15.4406    3.8923   11.3188 C.3         1 A02      -0.0492
     25 CAW        14.5506    3.5207   12.5386 C.3         1 A02      -0.0326
     26 CBD        13.0817    4.0185   12.4779 C.3         1 A02       0.0310
     27 NBR        12.5474    4.1888   13.7982 N.am        1 A02      -0.2847
     28 NBS        16.3206    5.8769    8.6487 N.am        1 A02      -0.2656
     29 CCI        16.0426    7.2421    8.2802 C.3         1 A02       0.1308
     30 CCB        16.9369    7.7081    7.2207 C.2         1 A02       0.2016
     31 OAK        16.4818    8.0988    6.1451 O.2         1 A02      -0.3945
     32 CBJ        14.5210    7.5524    8.0356 C.3         1 A02      -0.0122
     33 CAZ        13.4928    6.8267    8.9666 C.3         1 A02      -0.0440
     34 CAS        12.4633    7.7393    9.6827 C.3         1 A02      -0.0124
     35 CAR        13.0730    8.5495   10.8523 C.3         1 A02      -0.0354
     36 NAC        12.0227    9.1687   11.6661 N.4         1 A02       0.2185
     37 CCA        20.1814   12.2211    4.6378 C.2         1 A02       0.1782
     38 OAJ        21.0229   13.1140    4.6461 O.2         1 A02      -0.3969
     39 CBH        20.6612   10.8507    4.6021 C.3         1 A02       0.0374
     40 CAY        21.5221   10.5102    5.8542 C.3         1 A02      -0.0360
     41 CAT        21.7004    8.9855    6.1326 C.3         1 A02      -0.0492
     42 CAV        20.6382    8.3451    7.0744 C.3         1 A02      -0.0326
     43 CBC        19.1786    8.4388    6.5625 C.3         1 A02       0.0310
     44 NBQ        18.2421    7.8024    7.4432 N.am        1 A02      -0.2851
     45 NBT        18.8817   12.4890    4.7495 N.am        1 A02      -0.2656
     46 CCJ        18.3177   13.7938    4.9879 C.3         1 A02       0.1310
     47 CBK        18.4051   14.1374    6.5095 C.3         1 A02      -0.0092
     48 CBB        18.4363   15.6611    6.8135 C.3         1 A02      -0.0156
     49 CBF        18.9075   15.9764    8.2572 C.3         1 A02       0.0627
     50 NBP        19.2518   17.3249    8.3790 N.pl3       1 A02      -0.2723
     51 CBX        18.7703   18.2150    9.1631 C.cat       1 A02       0.2882
     52 NAB        17.8309   18.0424   10.0106 N.pl3       1 A02      -0.2849
     53 NAE        19.2903   19.3780    9.1084 N.pl3       1 A02      -0.2849
     54 CCD        16.9705   13.8713    4.4266 C.2         1 A02       0.2039
     55 OAM        16.8446   14.3662    3.3084 O.2         1 A02      -0.3944
     56 N          15.9062   13.4159    5.0796 N.am        1 A02      -0.2637
     57 CA         14.5295   13.5050    4.6545 C.3         1 A02       0.1307
     58 CB         13.8477   14.8031    5.2221 C.3         1 A02      -0.0092
     59 CG         13.0403   15.6475    4.1906 C.3         1 A02      -0.0156
     60 CD         13.8745   16.3534    3.0814 C.3         1 A02       0.0627
     61 NE         15.0139   17.0166    3.5454 N.pl3       1 A02      -0.2723
     62 CZ         15.0761   18.1098    4.2144 C.cat       1 A02       0.2882
     63 NH1        14.0691   18.8161    4.5472 N.pl3       1 A02      -0.2849
     64 NH2        16.2364   18.5149    4.5711 N.pl3       1 A02      -0.2849
     65 C          13.8411   12.2725    5.0299 C.2         1 A02       0.1992
     66 O          13.4406   11.4907    4.1753 O.2         1 A02      -0.3947
     67 NAF        13.6609   11.9235    6.2829 N.am        1 A02      -0.2990
     68 H1          7.1700    9.7859   15.8279 H           1 A02       0.0996
     69 H2          4.6708    7.4134   11.8436 H           1 A02       0.1820
     70 H3          4.4989    9.0388   12.2289 H           1 A02       0.1820
     71 H4          7.2684    3.8015   13.5556 H           1 A02       0.1349
     72 H5         10.0328    2.8412   18.4101 H           1 A02       0.2102
     73 H6          7.0247    2.7994   16.8014 H           1 A02       0.2101
     74 H7         10.4689    2.2097   16.3246 H           1 A02       0.0673
     75 H8          8.4433    2.8606   15.2975 H           1 A02       0.0678
     76 H9         11.7330    4.7173   16.1180 H           1 A02       0.0869
     77 H10         8.6198    5.5604   16.7004 H           1 A02       0.0998
     78 H11        17.0815    3.4305    9.1370 H           1 A02       0.0502
     79 H12        15.9157    2.6787    8.0611 H           1 A02       0.0502
     80 H13        15.0616    2.1298   10.1517 H           1 A02       0.0290
     81 H14        14.0510    3.4899    9.6791 H           1 A02       0.0290
     82 H15        15.4316    4.9771   11.2047 H           1 A02       0.0267
     83 H16        16.4653    3.6029   11.5652 H           1 A02       0.0267
     84 H17        15.0296    3.9538   13.4213 H           1 A02       0.0285
     85 H18        14.5421    2.4375   12.6715 H           1 A02       0.0285
     86 H19        12.4870    3.3326   11.8693 H           1 A02       0.0520
     87 H20        13.0511    5.0029   12.0023 H           1 A02       0.0520
     88 H21        13.0488    4.7868   14.3725 H           1 A02       0.1851
     89 H22        16.8784    5.7610    9.4329 H           1 A02       0.1883
     90 H23        16.3127    7.8301    9.1627 H           1 A02       0.0800
     91 H24        14.2662    7.2948    6.9994 H           1 A02       0.0312
     92 H25        14.3893    8.6345    8.1130 H           1 A02       0.0312
     93 H26        14.0132    6.2538    9.7311 H           1 A02       0.0269
     94 H27        12.9342    6.1028    8.3656 H           1 A02       0.0269
     95 H28        11.6702    7.1037   10.0880 H           1 A02       0.0317
     96 H29        12.0025    8.4228    8.9632 H           1 A02       0.0317
     97 H30        13.7283    9.3340   10.4702 H           1 A02       0.0813
     98 H31        13.6561    7.8926   11.5008 H           1 A02       0.0813
     99 H32        12.4517    9.6577   12.4510 H           1 A02       0.1994
    100 H33        11.3906    8.4489   12.0211 H           1 A02       0.1994
    101 H34        11.4975    9.8393   11.1045 H           1 A02       0.1994
    102 H35        21.2655   10.7115    3.7002 H           1 A02       0.0502
    103 H36        19.8184   10.1612    4.5302 H           1 A02       0.0502
    104 H37        21.0974   10.9805    6.7413 H           1 A02       0.0290
    105 H38        22.5113   10.9549    5.7079 H           1 A02       0.0290
    106 H39        22.6737    8.8486    6.6141 H           1 A02       0.0267
    107 H40        21.7362    8.4330    5.1873 H           1 A02       0.0267
    108 H41        20.6993    8.8242    8.0546 H           1 A02       0.0285
    109 H42        20.8897    7.2904    7.2036 H           1 A02       0.0285
    110 H43        19.1147    7.9844    5.5685 H           1 A02       0.0520
    111 H44        18.9016    9.4932    6.4870 H           1 A02       0.0520
    112 H45        18.5823    7.4753    8.2941 H           1 A02       0.1851
    113 H46        18.2766   11.7303    4.7777 H           1 A02       0.1883
    114 H47        18.9424   14.5203    4.4538 H           1 A02       0.0800
    115 H48        19.3284   13.7023    6.8988 H           1 A02       0.0313
    116 H49        17.5822   13.6732    7.0583 H           1 A02       0.0313
    117 H50        17.4412   16.0800    6.6558 H           1 A02       0.0301
    118 H51        19.1162   16.1461    6.1088 H           1 A02       0.0301
    119 H52        19.8104   15.4071    8.4859 H           1 A02       0.0689
    120 H53        18.1385   15.6565    8.9623 H           1 A02       0.0689
    121 H54        19.9562   17.6083    7.8322 H           1 A02       0.2642
    122 H55        17.5709   18.7651   10.5474 H           1 A02       0.2615
    123 H56        17.4101   17.2103   10.1104 H           1 A02       0.2615
    124 H57        19.9921   19.5602    8.5143 H           1 A02       0.2615
    125 H58        18.9875   20.0442    9.6878 H           1 A02       0.2615
    126 H59        16.0577   13.0639    5.9711 H           1 A02       0.1883
    127 H60        14.5125   13.5522    3.5632 H           1 A02       0.0800
    128 H61        14.6015   15.4585    5.6720 H           1 A02       0.0313
    129 H62        13.1635   14.5466    6.0371 H           1 A02       0.0313
    130 H63        12.4899   16.4147    4.7376 H           1 A02       0.0301
    131 H64        12.2990   15.0038    3.7141 H           1 A02       0.0301
    132 H65        13.2360   17.0455    2.5254 H           1 A02       0.0689
    133 H66        14.2056   15.6028    2.3601 H           1 A02       0.0689
    134 H67        15.8308   16.6132    3.3474 H           1 A02       0.2642
    135 H68        14.1862   19.6057    5.0320 H           1 A02       0.2615
    136 H69        13.2068   18.5606    4.2957 H           1 A02       0.2615
    137 H70        16.9956   18.0193    4.3456 H           1 A02       0.2615
    138 H71        16.3308   19.3050    5.0602 H           1 A02       0.2615
    139 H72        13.2177   11.0849    6.4948 H           1 A02       0.1815
    140 H73        13.9737   12.4952    7.0035 H           1 A02       0.1815
@<TRIPOS>BOND
     1     2     1  ar
     2     6     1  ar
     3     3     2  ar
     4     4     3  ar
     5     4     5  ar
     6    10     4   1
     7     5     6  ar
     8     8     5   1
     9     6     7   1
    10     9     8   2
    11    10     9   1
    12    19    10   1
    13    15    11   2
    14    16    12   1
    15    17    13   1
    16    18    14   1
    17    14    19   1
    18    15    18   1
    19    27    15  am
    20    16    17   1
    21    18    16   1
    22    17    19   1
    23    20    21   2
    24    20    22   1
    25    28    20  am
    26    22    23   1
    27    23    24   1
    28    24    25   1
    29    25    26   1
    30    26    27   1
    31    29    28   1
    32    30    29   1
    33    29    32   1
    34    30    31   2
    35    44    30  am
    36    32    33   1
    37    33    34   1
    38    34    35   1
    39    35    36   1
    40    37    38   2
    41    39    37   1
    42    37    45  am
    43    40    39   1
    44    41    40   1
    45    42    41   1
    46    43    42   1
    47    43    44   1
    48    45    46   1
    49    46    47   1
    50    46    54   1
    51    47    48   1
    52    48    49   1
    53    49    50   1
    54    50    51  ar
    55    51    52  ar
    56    51    53  ar
    57    54    55   2
    58    54    56  am
    59    56    57   1
    60    57    58   1
    61    57    65   1
    62    58    59   1
    63    59    60   1
    64    60    61   1
    65    61    62  ar
    66    62    63  ar
    67    62    64  ar
    68    65    66   2
    69    65    67  am
    70     2    68   1
    71     7    69   1
    72     7    70   1
    73     9    71   1
    74    12    72   1
    75    13    73   1
    76    16    74   1
    77    17    75   1
    78    18    76   1
    79    19    77   1
    80    22    78   1
    81    22    79   1
    82    23    80   1
    83    23    81   1
    84    24    82   1
    85    24    83   1
    86    25    84   1
    87    25    85   1
    88    26    86   1
    89    26    87   1
    90    27    88   1
    91    28    89   1
    92    29    90   1
    93    32    91   1
    94    32    92   1
    95    33    93   1
    96    33    94   1
    97    34    95   1
    98    34    96   1
    99    35    97   1
   100    35    98   1
   101    36    99   1
   102    36   100   1
   103    36   101   1
   104    39   102   1
   105    39   103   1
   106    40   104   1
   107    40   105   1
   108    41   106   1
   109    41   107   1
   110    42   108   1
   111    42   109   1
   112    43   110   1
   113    43   111   1
   114    44   112   1
   115    45   113   1
   116    46   114   1
   117    47   115   1
   118    47   116   1
   119    48   117   1
   120    48   118   1
   121    49   119   1
   122    49   120   1
   123    50   121   1
   124    52   122   1
   125    52   123   1
   126    53   124   1
   127    53   125   1
   128    56   126   1
   129    57   127   1
   130    58   128   1
   131    58   129   1
   132    59   130   1
   133    59   131   1
   134    60   132   1
   135    60   133   1
   136    61   134   1
   137    63   135   1
   138    63   136   1
   139    64   137   1
   140    64   138   1
   141    67   139   1
   142    67   140   1
@<TRIPOS>SUBSTRUCTURE
     1  A02      2

