@<TRIPOS>MOLECULE
3ag9_ligand_075
   140   142
SMALL
GAST_HUCK
****
This file was generated by PARSER (from files_GN.cpp)

@<TRIPOS>ATOM
      1 N1          9.0652   14.4328   -0.1429 N.ar        1 A02      -0.2698
      2 C2          9.1210   15.2870    0.9190 C.ar        1 A02       0.0533
      3 N3          9.0004   14.8098    2.1895 N.ar        1 A02      -0.2714
      4 C4          8.8229   13.4804    2.3996 C.ar        1 A02       0.1613
      5 C5          8.7604   12.5970    1.3271 C.ar        1 A02       0.1045
      6 C6          8.8873   13.0932    0.0204 C.ar        1 A02       0.1298
      7 N6          8.8422   12.2738   -1.0419 N.pl3       1 A02      -0.3152
      8 N7          8.5865   11.3550    1.8025 N.2         1 A02      -0.2958
      9 C8          8.5466   11.4728    3.1384 C.2         1 A02       0.1123
     10 N9          8.6866   12.7591    3.5307 N.pl3       1 A02      -0.1918
     11 OAL         9.0263   10.1246    6.2517 O.2         1 A02      -0.3941
     12 OAN         8.0150   14.2729    7.6578 O.3         1 A02      -0.3840
     13 OAO         6.4235   14.0246    5.4246 O.3         1 A02      -0.3834
     14 OBV         9.7688   12.6090    5.6270 O.3         1 A02      -0.3181
     15 CCC         9.3075   10.8697    7.1819 C.2         1 A02       0.2080
     16 CCK         7.9089   12.9559    7.1117 C.3         1 A02       0.1295
     17 CCL         7.4071   13.0159    5.6618 C.3         1 A02       0.1408
     18 CCM         9.3091   12.3106    6.9601 C.3         1 A02       0.1788
     19 CCN         8.7179   13.2481    4.8804 C.3         1 A02       0.2035
     20 CBZ        12.3053    6.6972   12.6376 C.2         1 A02       0.1782
     21 OAI        13.1192    7.0491   11.7859 O.2         1 A02      -0.3969
     22 CBG        11.4327    7.6721   13.2763 C.3         1 A02       0.0374
     23 CAX        11.0719    8.9475   12.4544 C.3         1 A02      -0.0360
     24 CAU        10.0542    8.7776   11.2792 C.3         1 A02      -0.0492
     25 CAW        10.6908    8.6986    9.8608 C.3         1 A02      -0.0326
     26 CBD         9.7183    8.9797    8.6855 C.3         1 A02       0.0310
     27 NBR         9.5877   10.3726    8.3824 N.am        1 A02      -0.2847
     28 NBS        12.2516    5.4321   13.0569 N.am        1 A02      -0.2656
     29 CCI        12.9778    4.2926   12.5419 C.3         1 A02       0.1308
     30 CCB        12.3415    3.6841   11.3678 C.2         1 A02       0.2016
     31 OAK        12.7031    2.5441   11.0909 O.2         1 A02      -0.3945
     32 CBJ        14.5459    4.5123   12.4657 C.3         1 A02      -0.0122
     33 CAZ        15.3701    3.8336   11.3171 C.3         1 A02      -0.0440
     34 CAS        15.3110    4.4514    9.8801 C.3         1 A02      -0.0124
     35 CAR        15.2881    6.0112    9.7933 C.3         1 A02      -0.0354
     36 NAC        16.3718    6.5525    8.9444 N.4         1 A02       0.2185
     37 CCA        14.9484    2.1923    5.7808 C.2         1 A02       0.1782
     38 OAJ        15.3800    1.3760    4.9689 O.2         1 A02      -0.3969
     39 CBH        13.6802    1.9273    6.4349 C.3         1 A02       0.0374
     40 CAY        12.7598    3.1745    6.6136 C.3         1 A02      -0.0360
     41 CAT        11.3043    2.8253    7.0472 C.3         1 A02      -0.0492
     42 CAV        11.0983    2.6965    8.5849 C.3         1 A02      -0.0326
     43 CBC        10.8859    4.0578    9.3206 C.3         1 A02       0.0310
     44 NBQ        11.4851    4.3553   10.5919 N.am        1 A02      -0.2851
     45 NBT        15.6786    3.2324    6.1718 N.am        1 A02      -0.2656
     46 CCJ        17.0333    3.5656    5.8222 C.3         1 A02       0.1310
     47 CBK        17.3815    3.3619    4.3008 C.3         1 A02      -0.0092
     48 CBB        18.0123    4.5977    3.5959 C.3         1 A02      -0.0156
     49 CBF        16.9709    5.6704    3.1647 C.3         1 A02       0.0627
     50 NBP        15.9624    5.1683    2.3342 N.pl3       1 A02      -0.2723
     51 CBX        16.0621    4.8100    1.1047 C.cat       1 A02       0.2882
     52 NAB        17.1278    4.9069    0.4009 N.pl3       1 A02      -0.2849
     53 NAE        15.0303    4.3237    0.5355 N.pl3       1 A02      -0.2849
     54 CCD        18.0243    2.9540    6.7069 C.2         1 A02       0.2039
     55 OAM        19.1962    3.2744    6.5443 O.2         1 A02      -0.3944
     56 N          17.6977    2.0730    7.6517 N.am        1 A02      -0.2637
     57 CA         18.5957    1.4604    8.5884 C.3         1 A02       0.1307
     58 CB         18.0068    0.0981    9.0676 C.3         1 A02      -0.0092
     59 CG         18.8489   -0.6955   10.1063 C.3         1 A02      -0.0156
     60 CD         20.2786   -1.1249    9.6661 C.3         1 A02       0.0627
     61 NE         21.1566   -0.0379    9.5399 N.pl3       1 A02      -0.2723
     62 CZ         21.9563    0.2455    8.5798 C.cat       1 A02       0.2882
     63 NH1        22.1196   -0.4467    7.5160 N.pl3       1 A02      -0.2849
     64 NH2        22.6593    1.3072    8.6741 N.pl3       1 A02      -0.2849
     65 C          18.8575    2.3715    9.6946 C.2         1 A02       0.1992
     66 O          18.0327    2.5204   10.5809 O.2         1 A02      -0.3947
     67 NAF        19.9727    3.0621    9.7676 N.am        1 A02      -0.2990
     68 H1          9.2570   16.2859    0.7619 H           1 A02       0.0996
     69 H2          8.7195   11.3193   -0.9128 H           1 A02       0.1820
     70 H3          8.9352   12.6315   -1.9393 H           1 A02       0.1820
     71 H4          8.4228   10.6746    3.7647 H           1 A02       0.1349
     72 H5          8.1103   14.1479    8.6256 H           1 A02       0.2102
     73 H6          6.8296   14.8668    5.7194 H           1 A02       0.2101
     74 H7          7.2352   12.3697    7.7466 H           1 A02       0.0673
     75 H8          6.9664   12.0510    5.4002 H           1 A02       0.0678
     76 H9         10.0098   12.7773    7.6599 H           1 A02       0.0869
     77 H10         8.9348   14.3216    4.8869 H           1 A02       0.0998
     78 H11        11.9311    7.9983   14.1995 H           1 A02       0.0502
     79 H12        10.4932    7.1806   13.5686 H           1 A02       0.0502
     80 H13        11.9890    9.4132   12.0793 H           1 A02       0.0290
     81 H14        10.6295    9.6530   13.1634 H           1 A02       0.0290
     82 H15         9.3848    9.6410   11.2958 H           1 A02       0.0267
     83 H16         9.4392    7.8864   11.4505 H           1 A02       0.0267
     84 H17        11.0904    7.6949    9.7148 H           1 A02       0.0285
     85 H18        11.5258    9.4040    9.7938 H           1 A02       0.0285
     86 H19         8.7343    8.5549    8.9101 H           1 A02       0.0520
     87 H20        10.1150    8.4692    7.8027 H           1 A02       0.0520
     88 H21         9.7424   11.0062    9.1007 H           1 A02       0.1851
     89 H22        11.6134    5.2330   13.7685 H           1 A02       0.1883
     90 H23        12.8204    3.5564   13.3436 H           1 A02       0.0800
     91 H24        14.9751    4.1190   13.4014 H           1 A02       0.0312
     92 H25        14.7821    5.5823   12.4539 H           1 A02       0.0312
     93 H26        15.0747    2.7782   11.2451 H           1 A02       0.0269
     94 H27        16.4186    3.8315   11.6297 H           1 A02       0.0269
     95 H28        14.4310    4.0541    9.3643 H           1 A02       0.0317
     96 H29        16.1801    4.0675    9.3332 H           1 A02       0.0317
     97 H30        15.3829    6.4558   10.7899 H           1 A02       0.0813
     98 H31        14.3354    6.3328    9.3518 H           1 A02       0.0813
     99 H32        16.2726    7.5737    8.9264 H           1 A02       0.1994
    100 H33        16.2913    6.1685    7.9916 H           1 A02       0.1994
    101 H34        17.2752    6.2885    9.3493 H           1 A02       0.1994
    102 H35        13.9140    1.5116    7.4162 H           1 A02       0.0502
    103 H36        13.1335    1.1604    5.8743 H           1 A02       0.0502
    104 H37        12.7237    3.7147    5.6664 H           1 A02       0.0290
    105 H38        13.2059    3.8517    7.3518 H           1 A02       0.0290
    106 H39        11.0170    1.8822    6.5683 H           1 A02       0.0267
    107 H40        10.6382    3.6065    6.6650 H           1 A02       0.0267
    108 H41        11.9652    2.1725    8.9846 H           1 A02       0.0285
    109 H42        10.2239    2.0631    8.7667 H           1 A02       0.0285
    110 H43         9.8022    4.1824    9.4503 H           1 A02       0.0520
    111 H44        11.2108    4.8685    8.6647 H           1 A02       0.0520
    112 H45        11.2881    5.2517   10.9008 H           1 A02       0.1851
    113 H46        15.2581    3.8300    6.8133 H           1 A02       0.1883
    114 H47        17.0753    4.6390    6.0376 H           1 A02       0.0800
    115 H48        16.4810    3.0857    3.7527 H           1 A02       0.0313
    116 H49        18.0654    2.5141    4.1874 H           1 A02       0.0313
    117 H50        18.5545    4.2537    2.7108 H           1 A02       0.0301
    118 H51        18.7503    5.0582    4.2559 H           1 A02       0.0301
    119 H52        17.4776    6.5038    2.6732 H           1 A02       0.0689
    120 H53        16.4922    6.0666    4.0614 H           1 A02       0.0689
    121 H54        15.1191    5.0631    2.7238 H           1 A02       0.2642
    122 H55        17.1275    4.6229   -0.4901 H           1 A02       0.2615
    123 H56        17.9081    5.2630    0.7711 H           1 A02       0.2615
    124 H57        14.2286    4.2306    1.0094 H           1 A02       0.2615
    125 H58        15.0707    4.0518   -0.3598 H           1 A02       0.2615
    126 H59        16.7667    1.8083    7.7121 H           1 A02       0.1883
    127 H60        19.5235    1.2405    8.0584 H           1 A02       0.0800
    128 H61        17.8431   -0.5435    8.1983 H           1 A02       0.0313
    129 H62        17.0211    0.2801    9.5079 H           1 A02       0.0313
    130 H63        18.2925   -1.6052   10.3446 H           1 A02       0.0301
    131 H64        18.9159   -0.1213   11.0324 H           1 A02       0.0301
    132 H65        20.2006   -1.7278    8.7579 H           1 A02       0.0689
    133 H66        20.6913   -1.7686   10.4477 H           1 A02       0.0689
    134 H67        21.1707    0.5538   10.2661 H           1 A02       0.2642
    135 H68        22.7207   -0.1483    6.8653 H           1 A02       0.2615
    136 H69        21.6451   -1.2385    7.3810 H           1 A02       0.2615
    137 H70        22.5917    1.8541    9.4294 H           1 A02       0.2615
    138 H71        23.2493    1.5406    7.9837 H           1 A02       0.2615
    139 H72        20.1201    3.6404   10.5297 H           1 A02       0.1815
    140 H73        20.6650    2.9648    9.0956 H           1 A02       0.1815
@<TRIPOS>BOND
     1     2     1  ar
     2     6     1  ar
     3     3     2  ar
     4     4     3  ar
     5     4     5  ar
     6    10     4   1
     7     5     6  ar
     8     8     5   1
     9     6     7   1
    10     9     8   2
    11    10     9   1
    12    19    10   1
    13    15    11   2
    14    16    12   1
    15    17    13   1
    16    18    14   1
    17    14    19   1
    18    15    18   1
    19    27    15  am
    20    16    17   1
    21    18    16   1
    22    17    19   1
    23    20    21   2
    24    20    22   1
    25    28    20  am
    26    22    23   1
    27    23    24   1
    28    24    25   1
    29    25    26   1
    30    26    27   1
    31    29    28   1
    32    30    29   1
    33    29    32   1
    34    30    31   2
    35    44    30  am
    36    32    33   1
    37    33    34   1
    38    34    35   1
    39    35    36   1
    40    37    38   2
    41    39    37   1
    42    37    45  am
    43    40    39   1
    44    41    40   1
    45    42    41   1
    46    43    42   1
    47    43    44   1
    48    45    46   1
    49    46    47   1
    50    46    54   1
    51    47    48   1
    52    48    49   1
    53    49    50   1
    54    50    51  ar
    55    51    52  ar
    56    51    53  ar
    57    54    55   2
    58    54    56  am
    59    56    57   1
    60    57    58   1
    61    57    65   1
    62    58    59   1
    63    59    60   1
    64    60    61   1
    65    61    62  ar
    66    62    63  ar
    67    62    64  ar
    68    65    66   2
    69    65    67  am
    70     2    68   1
    71     7    69   1
    72     7    70   1
    73     9    71   1
    74    12    72   1
    75    13    73   1
    76    16    74   1
    77    17    75   1
    78    18    76   1
    79    19    77   1
    80    22    78   1
    81    22    79   1
    82    23    80   1
    83    23    81   1
    84    24    82   1
    85    24    83   1
    86    25    84   1
    87    25    85   1
    88    26    86   1
    89    26    87   1
    90    27    88   1
    91    28    89   1
    92    29    90   1
    93    32    91   1
    94    32    92   1
    95    33    93   1
    96    33    94   1
    97    34    95   1
    98    34    96   1
    99    35    97   1
   100    35    98   1
   101    36    99   1
   102    36   100   1
   103    36   101   1
   104    39   102   1
   105    39   103   1
   106    40   104   1
   107    40   105   1
   108    41   106   1
   109    41   107   1
   110    42   108   1
   111    42   109   1
   112    43   110   1
   113    43   111   1
   114    44   112   1
   115    45   113   1
   116    46   114   1
   117    47   115   1
   118    47   116   1
   119    48   117   1
   120    48   118   1
   121    49   119   1
   122    49   120   1
   123    50   121   1
   124    52   122   1
   125    52   123   1
   126    53   124   1
   127    53   125   1
   128    56   126   1
   129    57   127   1
   130    58   128   1
   131    58   129   1
   132    59   130   1
   133    59   131   1
   134    60   132   1
   135    60   133   1
   136    61   134   1
   137    63   135   1
   138    63   136   1
   139    64   137   1
   140    64   138   1
   141    67   139   1
   142    67   140   1
@<TRIPOS>SUBSTRUCTURE
     1  A02      2

