@<TRIPOS>MOLECULE
3ao4_ligand_004
    27    29
SMALL
GAST_HUCK
****
This file was generated by PARSER (from files_GN.cpp)

@<TRIPOS>ATOM
      1 C1          4.7739    4.5669   -7.4499 C.ar        1 MOL      -0.0342
      2 C2          5.7536    3.9980   -6.5948 C.ar        1 MOL      -0.0388
      3 C3          7.0805    3.8679   -7.0914 C.ar        1 MOL      -0.0738
      4 C4          7.4197    4.2794   -8.3976 C.ar        1 MOL      -0.0397
      5 C5          6.4219    4.8341   -9.2138 C.ar        1 MOL       0.1245
      6 C6          5.1270    4.9787   -8.7459 C.ar        1 MOL       0.1240
      7 O7          4.3202    5.5339   -9.6712 O.3         1 MOL      -0.2908
      8 C8          5.1934    5.6125  -10.8133 C.3         1 MOL       0.1873
      9 O9          6.5540    5.2808  -10.4775 O.3         1 MOL      -0.2900
     10 C10         5.4313    3.5705   -5.2743 C.2         1 MOL       0.0041
     11 C11         4.2098    3.6321   -4.6054 C.2         1 MOL      -0.0320
     12 C12         4.4226    3.1154   -3.3377 C.2         1 MOL       0.1510
     13 N13         5.7192    2.7589   -3.2696 N.pl3       1 MOL      -0.1966
     14 N14         6.3027    3.0239   -4.4017 N.2         1 MOL      -0.2405
     15 N15         3.4917    3.0155   -2.3751 N.pl3       1 MOL      -0.3098
     16 C16         6.3922    2.2008   -2.1419 C.3         1 MOL       0.0578
     17 H1          3.8072    4.6879   -7.1492 H           1 MOL       0.0507
     18 H2          7.8227    3.4704   -6.5077 H           1 MOL       0.0503
     19 H3          8.3742    4.1765   -8.7450 H           1 MOL       0.0514
     20 H4          5.1628    6.6250  -11.2240 H           1 MOL       0.0974
     21 H5          4.8342    4.9217  -11.5803 H           1 MOL       0.0974
     22 H6          3.3254    4.0017   -4.9602 H           1 MOL       0.0169
     23 H7          2.5829    3.3089   -2.5511 H           1 MOL       0.1782
     24 H8          3.7240    2.6588   -1.5032 H           1 MOL       0.1782
     25 H9          7.4394    1.9903   -2.3714 H           1 MOL       0.0589
     26 H10         5.9091    1.2683   -1.8454 H           1 MOL       0.0589
     27 H11         6.3582    2.9017   -1.3070 H           1 MOL       0.0589
@<TRIPOS>BOND
     1     1     2  ar
     2     1     6  ar
     3     2     3  ar
     4     2    10   1
     5     3     4  ar
     6     4     5  ar
     7     5     6  ar
     8     5     9   1
     9     6     7   1
    10     7     8   1
    11     8     9   1
    12    10    11   1
    13    10    14   2
    14    11    12   2
    15    12    13   1
    16    12    15   1
    17    13    14   1
    18    13    16   1
    19     1    17   1
    20     3    18   1
    21     4    19   1
    22     8    20   1
    23     8    21   1
    24    11    22   1
    25    15    23   1
    26    15    24   1
    27    16    25   1
    28    16    26   1
    29    16    27   1
@<TRIPOS>SUBSTRUCTURE
     1  MOL      1

