@<TRIPOS>MOLECULE
3ao4_ligand_043
    27    29
SMALL
GAST_HUCK
****
This file was generated by PARSER (from files_GN.cpp)

@<TRIPOS>ATOM
      1 C1          0.2694   11.2727  -10.8814 C.ar        1 MOL      -0.0342
      2 C2         -0.8433   11.9999  -10.3803 C.ar        1 MOL      -0.0388
      3 C3         -1.1342   11.9017   -8.9916 C.ar        1 MOL      -0.0738
      4 C4         -0.3555   11.1005   -8.1310 C.ar        1 MOL      -0.0397
      5 C5          0.7335   10.3943   -8.6637 C.ar        1 MOL       0.1245
      6 C6          1.0358   10.4815  -10.0132 C.ar        1 MOL       0.1240
      7 O7          2.1128    9.7417  -10.3419 O.3         1 MOL      -0.2908
      8 C8          2.4153    9.0996   -9.0899 C.3         1 MOL       0.1873
      9 O9          1.5963    9.5925   -8.0100 O.3         1 MOL      -0.2900
     10 C10        -1.6491   12.8123  -11.2288 C.2         1 MOL       0.0041
     11 C11        -1.4882   13.0766  -12.5846 C.2         1 MOL      -0.0320
     12 C12        -2.5011   13.9432  -12.9469 C.2         1 MOL       0.1510
     13 N13        -3.2284   14.1857  -11.8432 N.pl3       1 MOL      -0.1966
     14 N14        -2.7390   13.5101  -10.8440 N.2         1 MOL      -0.2405
     15 N15        -2.6831   14.4240  -14.1909 N.pl3       1 MOL      -0.3098
     16 C16        -4.3586   15.0529  -11.7457 C.3         1 MOL       0.0578
     17 H1          0.5377   11.3014  -11.8641 H           1 MOL       0.0507
     18 H2         -1.9240   12.4153   -8.5903 H           1 MOL       0.0503
     19 H3         -0.5802   11.0319   -7.1398 H           1 MOL       0.0514
     20 H4          3.4656    9.2736   -8.8586 H           1 MOL       0.0974
     21 H5          2.2562    8.0238   -9.1985 H           1 MOL       0.0974
     22 H6         -0.7639   12.7118  -13.2096 H           1 MOL       0.0169
     23 H7         -2.0882   14.1529  -14.9074 H           1 MOL       0.1782
     24 H8         -3.3970   15.0544  -14.3691 H           1 MOL       0.1782
     25 H9         -4.7677   15.0609  -10.7328 H           1 MOL       0.0589
     26 H10        -5.1370   14.7235  -12.4344 H           1 MOL       0.0589
     27 H11        -4.0663   16.0727  -12.0052 H           1 MOL       0.0589
@<TRIPOS>BOND
     1     1     2  ar
     2     1     6  ar
     3     2     3  ar
     4     2    10   1
     5     3     4  ar
     6     4     5  ar
     7     5     6  ar
     8     5     9   1
     9     6     7   1
    10     7     8   1
    11     8     9   1
    12    10    11   1
    13    10    14   2
    14    11    12   2
    15    12    13   1
    16    12    15   1
    17    13    14   1
    18    13    16   1
    19     1    17   1
    20     3    18   1
    21     4    19   1
    22     8    20   1
    23     8    21   1
    24    11    22   1
    25    15    23   1
    26    15    24   1
    27    16    25   1
    28    16    26   1
    29    16    27   1
@<TRIPOS>SUBSTRUCTURE
     1  MOL      1

