@<TRIPOS>MOLECULE
3ao4_ligand_013
    27    29
SMALL
GAST_HUCK
****
This file was generated by PARSER (from files_GN.cpp)

@<TRIPOS>ATOM
      1 C1         -2.7018    9.8123  -16.1438 C.ar        1 MOL      -0.0342
      2 C2         -2.8204   11.2291  -16.1417 C.ar        1 MOL      -0.0388
      3 C3         -2.9542   11.8884  -17.3951 C.ar        1 MOL      -0.0738
      4 C4         -2.9602   11.1674  -18.6076 C.ar        1 MOL      -0.0397
      5 C5         -2.8260    9.7713  -18.5673 C.ar        1 MOL       0.1245
      6 C6         -2.7050    9.1068  -17.3598 C.ar        1 MOL       0.1240
      7 O7         -2.6018    7.7761  -17.5283 O.3         1 MOL      -0.2908
      8 C8         -2.5813    7.6602  -18.9647 C.3         1 MOL       0.1873
      9 O9         -2.7965    8.9281  -19.6144 O.3         1 MOL      -0.2900
     10 C10        -2.7954   11.9476  -14.9111 C.2         1 MOL       0.0041
     11 C11        -2.8811   13.3228  -14.6899 C.2         1 MOL      -0.0320
     12 C12        -2.7921   13.5113  -13.3205 C.2         1 MOL       0.1510
     13 N13        -2.6674   12.2943  -12.7613 N.pl3       1 MOL      -0.1966
     14 N14        -2.6692   11.3850  -13.6905 N.2         1 MOL      -0.2405
     15 N15        -2.8277   14.6980  -12.6848 N.pl3       1 MOL      -0.3098
     16 C16        -2.5677   12.0164  -11.3671 C.3         1 MOL       0.0578
     17 H1         -2.6087    9.2821  -15.2751 H           1 MOL       0.0507
     18 H2         -3.0437   12.9043  -17.4460 H           1 MOL       0.0503
     19 H3         -3.0520   11.6502  -19.5027 H           1 MOL       0.0514
     20 H4         -3.3572    6.9582  -19.2787 H           1 MOL       0.0974
     21 H5         -1.6120    7.2629  -19.2773 H           1 MOL       0.0974
     22 H6         -2.9832   14.0616  -15.3868 H           1 MOL       0.0169
     23 H7         -2.9385   15.5168  -13.1922 H           1 MOL       0.1782
     24 H8         -2.7366   14.7352  -11.7172 H           1 MOL       0.1782
     25 H9         -2.5008   10.9427  -11.1817 H           1 MOL       0.0589
     26 H10        -3.4515   12.4031  -10.8581 H           1 MOL       0.0589
     27 H11        -1.6796   12.4971  -10.9521 H           1 MOL       0.0589
@<TRIPOS>BOND
     1     1     2  ar
     2     1     6  ar
     3     2     3  ar
     4     2    10   1
     5     3     4  ar
     6     4     5  ar
     7     5     6  ar
     8     5     9   1
     9     6     7   1
    10     7     8   1
    11     8     9   1
    12    10    11   1
    13    10    14   2
    14    11    12   2
    15    12    13   1
    16    12    15   1
    17    13    14   1
    18    13    16   1
    19     1    17   1
    20     3    18   1
    21     4    19   1
    22     8    20   1
    23     8    21   1
    24    11    22   1
    25    15    23   1
    26    15    24   1
    27    16    25   1
    28    16    26   1
    29    16    27   1
@<TRIPOS>SUBSTRUCTURE
     1  MOL      1

