@<TRIPOS>MOLECULE
3ao4_ligand_046
    27    29
SMALL
GAST_HUCK
****
This file was generated by PARSER (from files_GN.cpp)

@<TRIPOS>ATOM
      1 C1         -0.5088    5.7686   -9.7399 C.ar        1 MOL      -0.0342
      2 C2          0.5405    6.0908   -8.8388 C.ar        1 MOL      -0.0388
      3 C3          0.2038    6.7235   -7.6100 C.ar        1 MOL      -0.0738
      4 C4         -1.1347    7.0307   -7.2934 C.ar        1 MOL      -0.0397
      5 C5         -2.1454    6.6894   -8.2072 C.ar        1 MOL       0.1245
      6 C6         -1.8361    6.0784   -9.4093 C.ar        1 MOL       0.1240
      7 O7         -2.9364    5.8395  -10.1435 O.3         1 MOL      -0.2908
      8 C8         -3.9675    6.4535   -9.3485 C.3         1 MOL       0.1873
      9 O9         -3.4735    6.8815   -8.0666 O.3         1 MOL      -0.2900
     10 C10         1.8852    5.7727   -9.1781 C.2         1 MOL       0.0041
     11 C11         3.0487    5.9781   -8.4388 C.2         1 MOL      -0.0320
     12 C12         4.0907    5.4648   -9.1906 C.2         1 MOL       0.1510
     13 N13         3.5583    4.9793  -10.3268 N.pl3       1 MOL      -0.1966
     14 N14         2.2716    5.1611  -10.3197 N.2         1 MOL      -0.2405
     15 N15         5.3806    5.4880   -8.8199 N.pl3       1 MOL      -0.3098
     16 C16         4.2667    4.3509  -11.3949 C.3         1 MOL       0.0578
     17 H1         -0.3211    5.3146  -10.6337 H           1 MOL       0.0507
     18 H2          0.9207    6.9693   -6.9278 H           1 MOL       0.0503
     19 H3         -1.3705    7.4960   -6.4142 H           1 MOL       0.0514
     20 H4         -4.7756    5.7390   -9.1974 H           1 MOL       0.0974
     21 H5         -4.3702    7.3148   -9.8873 H           1 MOL       0.0974
     22 H6          3.1322    6.4185   -7.5173 H           1 MOL       0.0169
     23 H7          5.6245    5.9198   -7.9923 H           1 MOL       0.1782
     24 H8          6.0667    5.1296   -9.4005 H           1 MOL       0.1782
     25 H9          3.5789    4.0121  -12.1721 H           1 MOL       0.0589
     26 H10         4.8184    3.4856  -11.0209 H           1 MOL       0.0589
     27 H11         4.9699    5.0600  -11.8351 H           1 MOL       0.0589
@<TRIPOS>BOND
     1     1     2  ar
     2     1     6  ar
     3     2     3  ar
     4     2    10   1
     5     3     4  ar
     6     4     5  ar
     7     5     6  ar
     8     5     9   1
     9     6     7   1
    10     7     8   1
    11     8     9   1
    12    10    11   1
    13    10    14   2
    14    11    12   2
    15    12    13   1
    16    12    15   1
    17    13    14   1
    18    13    16   1
    19     1    17   1
    20     3    18   1
    21     4    19   1
    22     8    20   1
    23     8    21   1
    24    11    22   1
    25    15    23   1
    26    15    24   1
    27    16    25   1
    28    16    26   1
    29    16    27   1
@<TRIPOS>SUBSTRUCTURE
     1  MOL      1

