@<TRIPOS>MOLECULE
3ao4_ligand_031
    27    29
SMALL
GAST_HUCK
****
This file was generated by PARSER (from files_GN.cpp)

@<TRIPOS>ATOM
      1 C1          3.1338   16.7077  -11.4003 C.ar        1 MOL      -0.0342
      2 C2          3.0562   15.2979  -11.5576 C.ar        1 MOL      -0.0388
      3 C3          4.2339   14.5351  -11.3300 C.ar        1 MOL      -0.0738
      4 C4          5.4426   15.1511  -10.9466 C.ar        1 MOL      -0.0397
      5 C5          5.4775   16.5455  -10.7916 C.ar        1 MOL       0.1245
      6 C6          4.3459   17.3095  -11.0223 C.ar        1 MOL       0.1240
      7 O7          4.5734   18.6200  -10.8228 O.3         1 MOL      -0.2908
      8 C8          5.9841   18.6317  -10.5318 C.3         1 MOL       0.1873
      9 O9          6.5225   17.3004  -10.4090 O.3         1 MOL      -0.2900
     10 C10         1.8235   14.6889  -11.9319 C.2         1 MOL       0.0041
     11 C11         1.5365   13.3440  -12.1545 C.2         1 MOL      -0.0320
     12 C12         0.1971   13.2770  -12.5005 C.2         1 MOL       0.1510
     13 N13        -0.2806   14.5360  -12.4794 N.pl3       1 MOL      -0.1966
     14 N14         0.6711   15.3558  -12.1467 N.2         1 MOL      -0.2405
     15 N15        -0.4735   12.1500  -12.7966 N.pl3       1 MOL      -0.3098
     16 C16        -1.6155   14.9460  -12.7724 C.3         1 MOL       0.0578
     17 H1          2.3198   17.3072  -11.5546 H           1 MOL       0.0507
     18 H2          4.2274   13.5183  -11.4309 H           1 MOL       0.0503
     19 H3          6.2816   14.5923  -10.7764 H           1 MOL       0.0514
     20 H4          6.1522   19.1769   -9.6002 H           1 MOL       0.0974
     21 H5          6.5096   19.1555  -11.3350 H           1 MOL       0.0974
     22 H6          2.1727   12.5490  -12.0833 H           1 MOL       0.0169
     23 H7         -0.0170   11.2945  -12.7774 H           1 MOL       0.1782
     24 H8         -1.4147   12.1898  -13.0285 H           1 MOL       0.1782
     25 H9         -1.7304   16.0249  -12.6503 H           1 MOL       0.0589
     26 H10        -2.3135   14.4465  -12.0989 H           1 MOL       0.0589
     27 H11        -1.8666   14.6863  -13.8019 H           1 MOL       0.0589
@<TRIPOS>BOND
     1     1     2  ar
     2     1     6  ar
     3     2     3  ar
     4     2    10   1
     5     3     4  ar
     6     4     5  ar
     7     5     6  ar
     8     5     9   1
     9     6     7   1
    10     7     8   1
    11     8     9   1
    12    10    11   1
    13    10    14   2
    14    11    12   2
    15    12    13   1
    16    12    15   1
    17    13    14   1
    18    13    16   1
    19     1    17   1
    20     3    18   1
    21     4    19   1
    22     8    20   1
    23     8    21   1
    24    11    22   1
    25    15    23   1
    26    15    24   1
    27    16    25   1
    28    16    26   1
    29    16    27   1
@<TRIPOS>SUBSTRUCTURE
     1  MOL      1

