@<TRIPOS>MOLECULE
3ao4_ligand_037
    27    29
SMALL
GAST_HUCK
****
This file was generated by PARSER (from files_GN.cpp)

@<TRIPOS>ATOM
      1 C1          3.5029    0.9998   -3.8151 C.ar        1 MOL      -0.0342
      2 C2          3.5016    2.3650   -4.2099 C.ar        1 MOL      -0.0388
      3 C3          2.8580    3.3062   -3.3603 C.ar        1 MOL      -0.0738
      4 C4          2.2431    2.9040   -2.1566 C.ar        1 MOL      -0.0397
      5 C5          2.2580    1.5464   -1.8043 C.ar        1 MOL       0.1245
      6 C6          2.8795    0.6130   -2.6161 C.ar        1 MOL       0.1240
      7 O7          2.7997   -0.6284   -2.1039 O.3         1 MOL      -0.2908
      8 C8          1.9726   -0.4155   -0.9442 C.3         1 MOL       0.1873
      9 O9          1.7254    0.9827   -0.7051 O.3         1 MOL      -0.2900
     10 C10         4.1298    2.7567   -5.4273 C.2         1 MOL       0.0041
     11 C11         4.2323    4.0262   -5.9927 C.2         1 MOL      -0.0320
     12 C12         4.9441    3.8759   -7.1707 C.2         1 MOL       0.1510
     13 N13         5.2460    2.5688   -7.2920 N.pl3       1 MOL      -0.1966
     14 N14         4.7679    1.9200   -6.2712 N.2         1 MOL      -0.2405
     15 N15         5.2574    4.8779   -8.0142 N.pl3       1 MOL      -0.3098
     16 C16         5.9766    1.9579   -8.3538 C.3         1 MOL       0.0578
     17 H1          3.9515    0.2795   -4.3849 H           1 MOL       0.0507
     18 H2          2.8308    4.2989   -3.5995 H           1 MOL       0.0503
     19 H3          1.7798    3.5872   -1.5552 H           1 MOL       0.0514
     20 H4          2.4627   -0.8482   -0.0701 H           1 MOL       0.0974
     21 H5          1.0177   -0.9265   -1.0901 H           1 MOL       0.0974
     22 H6          3.8699    4.9067   -5.6229 H           1 MOL       0.0169
     23 H7          4.9903    5.7906   -7.8122 H           1 MOL       0.1782
     24 H8          5.7752    4.6946   -8.8124 H           1 MOL       0.1782
     25 H9          6.0824    0.8829   -8.1899 H           1 MOL       0.0589
     26 H10         6.9744    2.3978   -8.4184 H           1 MOL       0.0589
     27 H11         5.4536    2.1150   -9.2995 H           1 MOL       0.0589
@<TRIPOS>BOND
     1     1     2  ar
     2     1     6  ar
     3     2     3  ar
     4     2    10   1
     5     3     4  ar
     6     4     5  ar
     7     5     6  ar
     8     5     9   1
     9     6     7   1
    10     7     8   1
    11     8     9   1
    12    10    11   1
    13    10    14   2
    14    11    12   2
    15    12    13   1
    16    12    15   1
    17    13    14   1
    18    13    16   1
    19     1    17   1
    20     3    18   1
    21     4    19   1
    22     8    20   1
    23     8    21   1
    24    11    22   1
    25    15    23   1
    26    15    24   1
    27    16    25   1
    28    16    26   1
    29    16    27   1
@<TRIPOS>SUBSTRUCTURE
     1  MOL      1

