@<TRIPOS>MOLECULE
3ao4_ligand_021
    27    29
SMALL
GAST_HUCK
****
This file was generated by PARSER (from files_GN.cpp)

@<TRIPOS>ATOM
      1 C1          1.5773   10.3221  -14.1111 C.ar        1 MOL      -0.0342
      2 C2          0.2922   10.4979  -13.5323 C.ar        1 MOL      -0.0388
      3 C3          0.1118   10.1041  -12.1771 C.ar        1 MOL      -0.0738
      4 C4          1.1750    9.5623  -11.4231 C.ar        1 MOL      -0.0397
      5 C5          2.4296    9.4039  -12.0309 C.ar        1 MOL       0.1245
      6 C6          2.6256    9.7752  -13.3504 C.ar        1 MOL       0.1240
      7 O7          3.8941    9.5609  -13.7472 O.3         1 MOL      -0.2908
      8 C8          4.4227    8.8313  -12.6231 C.3         1 MOL       0.1873
      9 O9          3.5589    8.9240  -11.4741 O.3         1 MOL      -0.2900
     10 C10        -0.7665   11.0701  -14.2987 C.2         1 MOL       0.0041
     11 C11        -2.0899   11.3160  -13.9333 C.2         1 MOL      -0.0320
     12 C12        -2.7003   11.9153  -15.0243 C.2         1 MOL       0.1510
     13 N13        -1.7716   12.0094  -15.9935 N.pl3       1 MOL      -0.1966
     14 N14        -0.6464   11.5126  -15.5687 N.2         1 MOL      -0.2405
     15 N15        -3.9746   12.3441  -15.0762 N.pl3       1 MOL      -0.3098
     16 C16        -1.9576   12.5684  -17.2931 C.3         1 MOL       0.0578
     17 H1          1.7656   10.5868  -15.0810 H           1 MOL       0.0507
     18 H2         -0.7923   10.2137  -11.7158 H           1 MOL       0.0503
     19 H3          1.0376    9.2941  -10.4483 H           1 MOL       0.0514
     20 H4          5.4119    9.2243  -12.3667 H           1 MOL       0.0974
     21 H5          4.5364    7.7774  -12.9004 H           1 MOL       0.0974
     22 H6         -2.5382   11.1162  -13.0362 H           1 MOL       0.0169
     23 H7         -4.5579   12.2489  -14.3051 H           1 MOL       0.1782
     24 H8         -4.3036   12.7894  -15.8731 H           1 MOL       0.1782
     25 H9         -1.0396   12.5010  -17.8822 H           1 MOL       0.0589
     26 H10        -2.2382   13.6199  -17.2065 H           1 MOL       0.0589
     27 H11        -2.7482   12.0304  -17.8201 H           1 MOL       0.0589
@<TRIPOS>BOND
     1     1     2  ar
     2     1     6  ar
     3     2     3  ar
     4     2    10   1
     5     3     4  ar
     6     4     5  ar
     7     5     6  ar
     8     5     9   1
     9     6     7   1
    10     7     8   1
    11     8     9   1
    12    10    11   1
    13    10    14   2
    14    11    12   2
    15    12    13   1
    16    12    15   1
    17    13    14   1
    18    13    16   1
    19     1    17   1
    20     3    18   1
    21     4    19   1
    22     8    20   1
    23     8    21   1
    24    11    22   1
    25    15    23   1
    26    15    24   1
    27    16    25   1
    28    16    26   1
    29    16    27   1
@<TRIPOS>SUBSTRUCTURE
     1  MOL      1

