@<TRIPOS>MOLECULE
3ao4_ligand_007
    27    29
SMALL
GAST_HUCK
****
This file was generated by PARSER (from files_GN.cpp)

@<TRIPOS>ATOM
      1 C1         -1.8584    9.3374  -11.2816 C.ar        1 MOL      -0.0342
      2 C2         -0.9592   10.4344  -11.3499 C.ar        1 MOL      -0.0388
      3 C3          0.3987   10.2086  -10.9874 C.ar        1 MOL      -0.0738
      4 C4          0.8454    8.9386  -10.5658 C.ar        1 MOL      -0.0397
      5 C5         -0.0751    7.8829  -10.5049 C.ar        1 MOL       0.1245
      6 C6         -1.3998    8.0776  -10.8543 C.ar        1 MOL       0.1240
      7 O7         -2.1185    6.9462  -10.7424 O.3         1 MOL      -0.2908
      8 C8         -1.1523    6.0380  -10.1822 C.3         1 MOL       0.1873
      9 O9          0.1686    6.6102  -10.1418 O.3         1 MOL      -0.2900
     10 C10        -1.3853   11.7281  -11.7728 C.2         1 MOL       0.0041
     11 C11        -2.6509   12.1578  -12.1705 C.2         1 MOL      -0.0320
     12 C12        -2.5317   13.4980  -12.5056 C.2         1 MOL       0.1510
     13 N13        -1.2456   13.8395  -12.2961 N.pl3       1 MOL      -0.1966
     14 N14        -0.5818   12.8072  -11.8714 N.2         1 MOL      -0.2405
     15 N15        -3.5255   14.2818  -12.9626 N.pl3       1 MOL      -0.3098
     16 C16        -0.6656   15.1245  -12.5018 C.3         1 MOL       0.0578
     17 H1         -2.8426    9.4347  -11.5337 H           1 MOL       0.0507
     18 H2          1.0843   10.9655  -11.0280 H           1 MOL       0.0503
     19 H3          1.8240    8.7877  -10.3107 H           1 MOL       0.0514
     20 H4         -1.1317    5.1261  -10.7816 H           1 MOL       0.0974
     21 H5         -1.4580    5.7760   -9.1664 H           1 MOL       0.0974
     22 H6         -3.5071   11.6045  -12.2214 H           1 MOL       0.0169
     23 H7         -4.4146   13.9150  -13.0824 H           1 MOL       0.1782
     24 H8         -3.3569   15.2109  -13.1923 H           1 MOL       0.1782
     25 H9          0.3976   15.1199  -12.2510 H           1 MOL       0.0589
     26 H10        -1.1670   15.8583  -11.8688 H           1 MOL       0.0589
     27 H11        -0.7748   15.4179  -13.5476 H           1 MOL       0.0589
@<TRIPOS>BOND
     1     1     2  ar
     2     1     6  ar
     3     2     3  ar
     4     2    10   1
     5     3     4  ar
     6     4     5  ar
     7     5     6  ar
     8     5     9   1
     9     6     7   1
    10     7     8   1
    11     8     9   1
    12    10    11   1
    13    10    14   2
    14    11    12   2
    15    12    13   1
    16    12    15   1
    17    13    14   1
    18    13    16   1
    19     1    17   1
    20     3    18   1
    21     4    19   1
    22     8    20   1
    23     8    21   1
    24    11    22   1
    25    15    23   1
    26    15    24   1
    27    16    25   1
    28    16    26   1
    29    16    27   1
@<TRIPOS>SUBSTRUCTURE
     1  MOL      1

