@<TRIPOS>MOLECULE
3ao4_ligand_028
    27    29
SMALL
GAST_HUCK
****
This file was generated by PARSER (from files_GN.cpp)

@<TRIPOS>ATOM
      1 C1         -0.8408    9.1050   -7.0587 C.ar        1 MOL      -0.0342
      2 C2         -0.8778   10.5224   -6.9685 C.ar        1 MOL      -0.0388
      3 C3         -0.5573   11.2738   -8.1337 C.ar        1 MOL      -0.0738
      4 C4         -0.2188   10.6380   -9.3462 C.ar        1 MOL      -0.0397
      5 C5         -0.1979    9.2362   -9.3964 C.ar        1 MOL       0.1245
      6 C6         -0.5017    8.4849   -8.2738 C.ar        1 MOL       0.1240
      7 O7         -0.4363    7.1637   -8.5218 O.3         1 MOL      -0.2908
      8 C8          0.0225    7.1396   -9.8870 C.3         1 MOL       0.1873
      9 O9          0.0893    8.4620  -10.4587 O.3         1 MOL      -0.2900
     10 C10        -1.2247   11.1866   -5.7551 C.2         1 MOL       0.0041
     11 C11        -1.6004   10.6391   -4.5294 C.2         1 MOL      -0.0320
     12 C12        -1.8242   11.7030   -3.6716 C.2         1 MOL       0.1510
     13 N13        -1.5911   12.8318   -4.3696 N.pl3       1 MOL      -0.1966
     14 N14        -1.2423   12.5251   -5.5842 N.2         1 MOL      -0.2405
     15 N15        -2.1938   11.5909   -2.3841 N.pl3       1 MOL      -0.3098
     16 C16        -1.6888   14.1706   -3.8825 C.3         1 MOL       0.0578
     17 H1         -1.0637    8.5123   -6.2582 H           1 MOL       0.0507
     18 H2         -0.5707   12.2967   -8.1152 H           1 MOL       0.0503
     19 H3          0.0060   11.1867  -10.1787 H           1 MOL       0.0514
     20 H4         -0.6591    6.5260  -10.4823 H           1 MOL       0.0974
     21 H5          1.0133    6.6848   -9.9224 H           1 MOL       0.0974
     22 H6         -1.6936    9.6512   -4.2865 H           1 MOL       0.0169
     23 H7         -2.3266   10.7148   -1.9900 H           1 MOL       0.1782
     24 H8         -2.3237   12.3848   -1.8443 H           1 MOL       0.1782
     25 H9         -1.4467   14.8939   -4.6655 H           1 MOL       0.0589
     26 H10        -0.9920   14.3156   -3.0546 H           1 MOL       0.0589
     27 H11        -2.7046   14.3672   -3.5344 H           1 MOL       0.0589
@<TRIPOS>BOND
     1     1     2  ar
     2     1     6  ar
     3     2     3  ar
     4     2    10   1
     5     3     4  ar
     6     4     5  ar
     7     5     6  ar
     8     5     9   1
     9     6     7   1
    10     7     8   1
    11     8     9   1
    12    10    11   1
    13    10    14   2
    14    11    12   2
    15    12    13   1
    16    12    15   1
    17    13    14   1
    18    13    16   1
    19     1    17   1
    20     3    18   1
    21     4    19   1
    22     8    20   1
    23     8    21   1
    24    11    22   1
    25    15    23   1
    26    15    24   1
    27    16    25   1
    28    16    26   1
    29    16    27   1
@<TRIPOS>SUBSTRUCTURE
     1  MOL      1

