@<TRIPOS>MOLECULE
3ao4_ligand_035
    27    29
SMALL
GAST_HUCK
****
This file was generated by PARSER (from files_GN.cpp)

@<TRIPOS>ATOM
      1 C1         -1.5108    9.0862  -15.0948 C.ar        1 MOL      -0.0342
      2 C2         -0.7661   10.2580  -15.3898 C.ar        1 MOL      -0.0388
      3 C3          0.5653   10.1003  -15.8694 C.ar        1 MOL      -0.0738
      4 C4          1.1279    8.8191  -16.0566 C.ar        1 MOL      -0.0397
      5 C5          0.3541    7.6862  -15.7600 C.ar        1 MOL       0.1245
      6 C6         -0.9381    7.8194  -15.2828 C.ar        1 MOL       0.1240
      7 O7         -1.5214    6.6283  -15.0592 O.3         1 MOL      -0.2908
      8 C8         -0.4445    5.7182  -15.3502 C.3         1 MOL       0.1873
      9 O9          0.7055    6.3944  -15.8952 O.3         1 MOL      -0.2900
     10 C10        -1.3388   11.5513  -15.2153 C.2         1 MOL       0.0041
     11 C11        -2.6213   11.8868  -14.7815 C.2         1 MOL      -0.0320
     12 C12        -2.6933   13.2686  -14.7872 C.2         1 MOL       0.1510
     13 N13        -1.4969   13.7231  -15.2062 N.pl3       1 MOL      -0.1966
     14 N14        -0.7091   12.7189  -15.4558 N.2         1 MOL      -0.2405
     15 N15        -3.7711   13.9897  -14.4322 N.pl3       1 MOL      -0.3098
     16 C16        -1.1182   15.0889  -15.3660 C.3         1 MOL       0.0578
     17 H1         -2.4680    9.1342  -14.7473 H           1 MOL       0.0507
     18 H2          1.1417   10.9154  -16.0942 H           1 MOL       0.0503
     19 H3          2.0822    8.7120  -16.4068 H           1 MOL       0.0514
     20 H4         -0.7943    4.9688  -16.0629 H           1 MOL       0.0974
     21 H5         -0.1521    5.2066  -14.4300 H           1 MOL       0.0974
     22 H6         -3.3783   11.2560  -14.5091 H           1 MOL       0.0169
     23 H7         -4.5817   13.5443  -14.1399 H           1 MOL       0.1782
     24 H8         -3.7387   14.9585  -14.4619 H           1 MOL       0.1782
     25 H9         -0.0803   15.1704  -15.6954 H           1 MOL       0.0589
     26 H10        -1.2227   15.6178  -14.4170 H           1 MOL       0.0589
     27 H11        -1.7565   15.5655  -16.1117 H           1 MOL       0.0589
@<TRIPOS>BOND
     1     1     2  ar
     2     1     6  ar
     3     2     3  ar
     4     2    10   1
     5     3     4  ar
     6     4     5  ar
     7     5     6  ar
     8     5     9   1
     9     6     7   1
    10     7     8   1
    11     8     9   1
    12    10    11   1
    13    10    14   2
    14    11    12   2
    15    12    13   1
    16    12    15   1
    17    13    14   1
    18    13    16   1
    19     1    17   1
    20     3    18   1
    21     4    19   1
    22     8    20   1
    23     8    21   1
    24    11    22   1
    25    15    23   1
    26    15    24   1
    27    16    25   1
    28    16    26   1
    29    16    27   1
@<TRIPOS>SUBSTRUCTURE
     1  MOL      1

