@<TRIPOS>MOLECULE
3ao4_ligand_020
    27    29
SMALL
GAST_HUCK
****
This file was generated by PARSER (from files_GN.cpp)

@<TRIPOS>ATOM
      1 C1          1.1014    6.3490   -4.1712 C.ar        1 MOL      -0.0342
      2 C2          1.9892    5.7809   -5.1352 C.ar        1 MOL      -0.0388
      3 C3          1.9253    6.2627   -6.4628 C.ar        1 MOL      -0.0738
      4 C4          1.0204    7.2847   -6.8354 C.ar        1 MOL      -0.0397
      5 C5          0.1680    7.8240   -5.8551 C.ar        1 MOL       0.1245
      6 C6          0.2082    7.3582   -4.5552 C.ar        1 MOL       0.1240
      7 O7         -0.6790    7.9894   -3.7616 O.3         1 MOL      -0.2908
      8 C8         -1.3506    8.8456   -4.7035 C.3         1 MOL       0.1873
      9 O9         -0.7370    8.8070   -6.0081 O.3         1 MOL      -0.2900
     10 C10         2.9142    4.7613   -4.7586 C.2         1 MOL       0.0041
     11 C11         3.1196    4.1880   -3.5093 C.2         1 MOL      -0.0320
     12 C12         4.1240    3.2478   -3.6617 C.2         1 MOL       0.1510
     13 N13         4.4938    3.2774   -4.9560 N.pl3       1 MOL      -0.1966
     14 N14         3.8045    4.1781   -5.5924 N.2         1 MOL      -0.2405
     15 N15         4.6212    2.4772   -2.6769 N.pl3       1 MOL      -0.3098
     16 C16         5.5003    2.4733   -5.5687 C.3         1 MOL       0.0578
     17 H1          1.0944    6.0434   -3.1979 H           1 MOL       0.0507
     18 H2          2.5458    5.8877   -7.1877 H           1 MOL       0.0503
     19 H3          0.9867    7.6361   -7.7918 H           1 MOL       0.0514
     20 H4         -1.3370    9.8705   -4.3260 H           1 MOL       0.0974
     21 H5         -2.3923    8.5269   -4.7934 H           1 MOL       0.0974
     22 H6          2.6443    4.4024   -2.6289 H           1 MOL       0.0169
     23 H7          4.2871    2.5560   -1.7674 H           1 MOL       0.1782
     24 H8          5.3308    1.8448   -2.8724 H           1 MOL       0.1782
     25 H9          5.5701    2.6820   -6.6372 H           1 MOL       0.0589
     26 H10         5.2655    1.4156   -5.4359 H           1 MOL       0.0589
     27 H11         6.4660    2.6852   -5.1103 H           1 MOL       0.0589
@<TRIPOS>BOND
     1     1     2  ar
     2     1     6  ar
     3     2     3  ar
     4     2    10   1
     5     3     4  ar
     6     4     5  ar
     7     5     6  ar
     8     5     9   1
     9     6     7   1
    10     7     8   1
    11     8     9   1
    12    10    11   1
    13    10    14   2
    14    11    12   2
    15    12    13   1
    16    12    15   1
    17    13    14   1
    18    13    16   1
    19     1    17   1
    20     3    18   1
    21     4    19   1
    22     8    20   1
    23     8    21   1
    24    11    22   1
    25    15    23   1
    26    15    24   1
    27    16    25   1
    28    16    26   1
    29    16    27   1
@<TRIPOS>SUBSTRUCTURE
     1  MOL      1

