@<TRIPOS>MOLECULE
3ao4_ligand_051
    27    29
SMALL
GAST_HUCK
****
This file was generated by PARSER (from files_GN.cpp)

@<TRIPOS>ATOM
      1 C1          6.7711    3.2598   -6.6933 C.ar        1 MOL      -0.0342
      2 C2          5.4910    3.5817   -6.1678 C.ar        1 MOL      -0.0388
      3 C3          4.6795    4.4950   -6.8979 C.ar        1 MOL      -0.0738
      4 C4          5.1278    5.0711   -8.1033 C.ar        1 MOL      -0.0397
      5 C5          6.4003    4.7340   -8.5862 C.ar        1 MOL       0.1245
      6 C6          7.2064    3.8457   -7.8959 C.ar        1 MOL       0.1240
      7 O7          8.3784    3.6420   -8.5264 O.3         1 MOL      -0.2908
      8 C8          8.2872    4.5729   -9.6240 C.3         1 MOL       0.1873
      9 O9          6.9828    5.1758   -9.7148 O.3         1 MOL      -0.2900
     10 C10         5.0138    3.0094   -4.9508 C.2         1 MOL       0.0041
     11 C11         5.6446    2.1029   -4.0993 C.2         1 MOL      -0.0320
     12 C12         4.7611    1.8513   -3.0618 C.2         1 MOL       0.1510
     13 N13         3.6549    2.5820   -3.2979 N.pl3       1 MOL      -0.1966
     14 N14         3.8065    3.2560   -4.3991 N.2         1 MOL      -0.2405
     15 N15         4.9937    1.0201   -2.0310 N.pl3       1 MOL      -0.3098
     16 C16         2.4737    2.6200   -2.4972 C.3         1 MOL       0.0578
     17 H1          7.3951    2.6073   -6.2179 H           1 MOL       0.0507
     18 H2          3.7485    4.7509   -6.5627 H           1 MOL       0.0503
     19 H3          4.5366    5.7243   -8.6225 H           1 MOL       0.0514
     20 H4          8.5053    4.0520  -10.5588 H           1 MOL       0.0974
     21 H5          9.0336    5.3604   -9.4881 H           1 MOL       0.0974
     22 H6          6.5730    1.6911   -4.2049 H           1 MOL       0.0169
     23 H7          5.8332    0.5355   -1.9764 H           1 MOL       0.1782
     24 H8          4.3264    0.9068   -1.3361 H           1 MOL       0.1782
     25 H9          1.7215    3.2791   -2.9355 H           1 MOL       0.0589
     26 H10         2.7129    2.9851   -1.4965 H           1 MOL       0.0589
     27 H11         2.0464    1.6183   -2.4169 H           1 MOL       0.0589
@<TRIPOS>BOND
     1     1     2  ar
     2     1     6  ar
     3     2     3  ar
     4     2    10   1
     5     3     4  ar
     6     4     5  ar
     7     5     6  ar
     8     5     9   1
     9     6     7   1
    10     7     8   1
    11     8     9   1
    12    10    11   1
    13    10    14   2
    14    11    12   2
    15    12    13   1
    16    12    15   1
    17    13    14   1
    18    13    16   1
    19     1    17   1
    20     3    18   1
    21     4    19   1
    22     8    20   1
    23     8    21   1
    24    11    22   1
    25    15    23   1
    26    15    24   1
    27    16    25   1
    28    16    26   1
    29    16    27   1
@<TRIPOS>SUBSTRUCTURE
     1  MOL      1

