@<TRIPOS>MOLECULE
3ao4_ligand_010
    27    29
SMALL
GAST_HUCK
****
This file was generated by PARSER (from files_GN.cpp)

@<TRIPOS>ATOM
      1 C1          1.1797   12.4726  -11.2547 C.ar        1 MOL      -0.0342
      2 C2         -0.2393   12.5245  -11.2048 C.ar        1 MOL      -0.0388
      3 C3         -0.8852   12.0334  -10.0364 C.ar        1 MOL      -0.0738
      4 C4         -0.1453   11.5101   -8.9561 C.ar        1 MOL      -0.0397
      5 C5          1.2547   11.4741   -9.0440 C.ar        1 MOL       0.1245
      6 C6          1.9043   11.9458  -10.1725 C.ar        1 MOL       0.1240
      7 O7          3.2415   11.8343  -10.0658 O.3         1 MOL      -0.2908
      8 C8          3.3754   11.1231   -8.8207 C.3         1 MOL       0.1873
      9 O9          2.1212   11.0240   -8.1179 O.3         1 MOL      -0.2900
     10 C10        -0.9719   13.0623  -12.3018 C.2         1 MOL       0.0041
     11 C11        -2.3508   13.1814  -12.4631 C.2         1 MOL      -0.0320
     12 C12        -2.5531   13.7656  -13.7022 C.2         1 MOL       0.1510
     13 N13        -1.3399   13.9833  -14.2437 N.pl3       1 MOL      -0.1966
     14 N14        -0.4200   13.5706  -13.4237 N.2         1 MOL      -0.2405
     15 N15        -3.7500   14.0492  -14.2423 N.pl3       1 MOL      -0.3098
     16 C16        -1.0736   14.5728  -15.5158 C.3         1 MOL       0.0578
     17 H1          1.6980   12.8130  -12.0679 H           1 MOL       0.0507
     18 H2         -1.9030   12.0554   -9.9515 H           1 MOL       0.0503
     19 H3         -0.6188   11.1635   -8.1193 H           1 MOL       0.0514
     20 H4          4.1052   11.6377   -8.1910 H           1 MOL       0.0974
     21 H5          3.7485   10.1156   -9.0266 H           1 MOL       0.0974
     22 H6         -3.0847   12.8970  -11.8122 H           1 MOL       0.0169
     23 H7         -4.5632   13.8432  -13.7572 H           1 MOL       0.1782
     24 H8         -3.8012   14.4500  -15.1232 H           1 MOL       0.1782
     25 H9          0.0010   14.6312  -15.7050 H           1 MOL       0.0589
     26 H10        -1.4867   15.5829  -15.5494 H           1 MOL       0.0589
     27 H11        -1.5323   13.9747  -16.3057 H           1 MOL       0.0589
@<TRIPOS>BOND
     1     1     2  ar
     2     1     6  ar
     3     2     3  ar
     4     2    10   1
     5     3     4  ar
     6     4     5  ar
     7     5     6  ar
     8     5     9   1
     9     6     7   1
    10     7     8   1
    11     8     9   1
    12    10    11   1
    13    10    14   2
    14    11    12   2
    15    12    13   1
    16    12    15   1
    17    13    14   1
    18    13    16   1
    19     1    17   1
    20     3    18   1
    21     4    19   1
    22     8    20   1
    23     8    21   1
    24    11    22   1
    25    15    23   1
    26    15    24   1
    27    16    25   1
    28    16    26   1
    29    16    27   1
@<TRIPOS>SUBSTRUCTURE
     1  MOL      1

