@<TRIPOS>MOLECULE
3ao4_ligand_053
    27    29
SMALL
GAST_HUCK
****
This file was generated by PARSER (from files_GN.cpp)

@<TRIPOS>ATOM
      1 C1          5.2167    2.5480   -6.6941 C.ar        1 MOL      -0.0342
      2 C2          5.7951    1.7377   -5.6802 C.ar        1 MOL      -0.0388
      3 C3          7.0542    1.1301   -5.9467 C.ar        1 MOL      -0.0738
      4 C4          7.7146    1.3224   -7.1777 C.ar        1 MOL      -0.0397
      5 C5          7.1103    2.1280   -8.1544 C.ar        1 MOL       0.1245
      6 C6          5.8854    2.7296   -7.9166 C.ar        1 MOL       0.1240
      7 O7          5.4805    3.4656   -8.9688 O.3         1 MOL      -0.2908
      8 C8          6.4633    3.1153   -9.9600 C.3         1 MOL       0.1873
      9 O9          7.5891    2.4305   -9.3757 O.3         1 MOL      -0.2900
     10 C10         5.1131    1.5434   -4.4443 C.2         1 MOL       0.0041
     11 C11         5.4782    0.7496   -3.3599 C.2         1 MOL      -0.0320
     12 C12         4.4774    0.8892   -2.4123 C.2         1 MOL       0.1510
     13 N13         3.5601    1.7338   -2.9229 N.pl3       1 MOL      -0.1966
     14 N14         3.9369    2.1137   -4.1084 N.2         1 MOL      -0.2405
     15 N15         4.4538    0.2838   -1.2133 N.pl3       1 MOL      -0.3098
     16 C16         2.3516    2.1668   -2.2939 C.3         1 MOL       0.0578
     17 H1          4.3144    3.0096   -6.5596 H           1 MOL       0.0507
     18 H2          7.5108    0.5385   -5.2505 H           1 MOL       0.0503
     19 H3          8.6229    0.8881   -7.3567 H           1 MOL       0.0514
     20 H4          6.8093    4.0208  -10.4605 H           1 MOL       0.0974
     21 H5          5.9987    2.4650  -10.7076 H           1 MOL       0.0974
     22 H6          6.3125    0.1686   -3.2659 H           1 MOL       0.0169
     23 H7          5.1805   -0.3005   -0.9444 H           1 MOL       0.1782
     24 H8          3.7124    0.4421   -0.6085 H           1 MOL       0.1782
     25 H9          1.7999    2.8561   -2.9372 H           1 MOL       0.0589
     26 H10         2.5784    2.6811   -1.3578 H           1 MOL       0.0589
     27 H11         1.7113    1.3088   -2.0803 H           1 MOL       0.0589
@<TRIPOS>BOND
     1     1     2  ar
     2     1     6  ar
     3     2     3  ar
     4     2    10   1
     5     3     4  ar
     6     4     5  ar
     7     5     6  ar
     8     5     9   1
     9     6     7   1
    10     7     8   1
    11     8     9   1
    12    10    11   1
    13    10    14   2
    14    11    12   2
    15    12    13   1
    16    12    15   1
    17    13    14   1
    18    13    16   1
    19     1    17   1
    20     3    18   1
    21     4    19   1
    22     8    20   1
    23     8    21   1
    24    11    22   1
    25    15    23   1
    26    15    24   1
    27    16    25   1
    28    16    26   1
    29    16    27   1
@<TRIPOS>SUBSTRUCTURE
     1  MOL      1

