@<TRIPOS>MOLECULE
3ao4_ligand_038
    27    29
SMALL
GAST_HUCK
****
This file was generated by PARSER (from files_GN.cpp)

@<TRIPOS>ATOM
      1 C1         -0.8851   16.7165  -14.9542 C.ar        1 MOL      -0.0342
      2 C2         -0.8713   15.7716  -13.8976 C.ar        1 MOL      -0.0388
      3 C3         -0.0175   16.0244  -12.7847 C.ar        1 MOL      -0.0738
      4 C4          0.7825   17.1851  -12.7270 C.ar        1 MOL      -0.0397
      5 C5          0.7321   18.1000  -13.7896 C.ar        1 MOL       0.1245
      6 C6         -0.0810   17.8654  -14.8853 C.ar        1 MOL       0.1240
      7 O7          0.0061   18.8499  -15.7980 O.3         1 MOL      -0.2908
      8 C8          1.0208   19.6947  -15.2222 C.3         1 MOL       0.1873
      9 O9          1.3969   19.2649  -13.8991 O.3         1 MOL      -0.2900
     10 C10        -1.6924   14.6090  -13.9566 C.2         1 MOL       0.0041
     11 C11        -2.5914   14.2203  -14.9515 C.2         1 MOL      -0.0320
     12 C12        -3.1436   13.0201  -14.5386 C.2         1 MOL       0.1510
     13 N13        -2.5879   12.7181  -13.3494 N.pl3       1 MOL      -0.1966
     14 N14        -1.7421   13.6476  -13.0152 N.2         1 MOL      -0.2405
     15 N15        -4.0597   12.3105  -15.2208 N.pl3       1 MOL      -0.3098
     16 C16        -2.8606   11.5684  -12.5500 C.3         1 MOL       0.0578
     17 H1         -1.4748   16.5857  -15.7776 H           1 MOL       0.0507
     18 H2          0.0279   15.3727  -11.9991 H           1 MOL       0.0503
     19 H3          1.3857   17.3630  -11.9211 H           1 MOL       0.0514
     20 H4          0.6498   20.7205  -15.1772 H           1 MOL       0.0974
     21 H5          1.9046   19.6775  -15.8657 H           1 MOL       0.0974
     22 H6         -2.8135   14.7095  -15.8195 H           1 MOL       0.0169
     23 H7         -4.3871   12.6376  -16.0733 H           1 MOL       0.1782
     24 H8         -4.3956   11.4762  -14.8597 H           1 MOL       0.1782
     25 H9         -2.2469   11.5640  -11.6464 H           1 MOL       0.0589
     26 H10        -2.6452   10.6615  -13.1176 H           1 MOL       0.0589
     27 H11        -3.9110   11.5620  -12.2537 H           1 MOL       0.0589
@<TRIPOS>BOND
     1     1     2  ar
     2     1     6  ar
     3     2     3  ar
     4     2    10   1
     5     3     4  ar
     6     4     5  ar
     7     5     6  ar
     8     5     9   1
     9     6     7   1
    10     7     8   1
    11     8     9   1
    12    10    11   1
    13    10    14   2
    14    11    12   2
    15    12    13   1
    16    12    15   1
    17    13    14   1
    18    13    16   1
    19     1    17   1
    20     3    18   1
    21     4    19   1
    22     8    20   1
    23     8    21   1
    24    11    22   1
    25    15    23   1
    26    15    24   1
    27    16    25   1
    28    16    26   1
    29    16    27   1
@<TRIPOS>SUBSTRUCTURE
     1  MOL      1

