@<TRIPOS>MOLECULE
3ao4_ligand_054
    27    29
SMALL
GAST_HUCK
****
This file was generated by PARSER (from files_GN.cpp)

@<TRIPOS>ATOM
      1 C1          2.0207   12.8603  -14.1681 C.ar        1 MOL      -0.0342
      2 C2          1.2970   13.4908  -13.1210 C.ar        1 MOL      -0.0388
      3 C3          1.9800   13.7483  -11.9003 C.ar        1 MOL      -0.0738
      4 C4          3.3334   13.3934  -11.7257 C.ar        1 MOL      -0.0397
      5 C5          4.0144   12.7734  -12.7836 C.ar        1 MOL       0.1245
      6 C6          3.3696   12.5123  -13.9817 C.ar        1 MOL       0.1240
      7 O7          4.1873   11.9274  -14.8768 O.3         1 MOL      -0.2908
      8 C8          5.3877   11.7460  -14.1024 C.3         1 MOL       0.1873
      9 O9          5.3009   12.3774  -12.8101 O.3         1 MOL      -0.2900
     10 C10        -0.0710   13.8643  -13.2748 C.2         1 MOL       0.0041
     11 C11        -0.8927   13.7147  -14.3900 C.2         1 MOL      -0.0320
     12 C12        -2.1265   14.2390  -14.0453 C.2         1 MOL       0.1510
     13 N13        -2.0337   14.6725  -12.7738 N.pl3       1 MOL      -0.1966
     14 N14        -0.8311   14.4536  -12.3281 N.2         1 MOL      -0.2405
     15 N15        -3.1958   14.2939  -14.8562 N.pl3       1 MOL      -0.3098
     16 C16        -3.0802   15.2750  -12.0117 C.3         1 MOL       0.0578
     17 H1          1.5877   12.6486  -15.0676 H           1 MOL       0.0507
     18 H2          1.5009   14.2027  -11.1209 H           1 MOL       0.0503
     19 H3          3.8140   13.5875  -10.8449 H           1 MOL       0.0514
     20 H4          6.2333   12.1645  -14.6513 H           1 MOL       0.0974
     21 H5          5.5627   10.6762  -13.9653 H           1 MOL       0.0974
     22 H6         -0.6503   13.3095  -15.2965 H           1 MOL       0.0169
     23 H7         -3.1399   13.9483  -15.7608 H           1 MOL       0.1782
     24 H8         -4.0168   14.7081  -14.5480 H           1 MOL       0.1782
     25 H9         -2.7481   15.5223  -11.0043 H           1 MOL       0.0589
     26 H10        -3.9283   14.5919  -11.9369 H           1 MOL       0.0589
     27 H11        -3.4100   16.1952  -12.4921 H           1 MOL       0.0589
@<TRIPOS>BOND
     1     1     2  ar
     2     1     6  ar
     3     2     3  ar
     4     2    10   1
     5     3     4  ar
     6     4     5  ar
     7     5     6  ar
     8     5     9   1
     9     6     7   1
    10     7     8   1
    11     8     9   1
    12    10    11   1
    13    10    14   2
    14    11    12   2
    15    12    13   1
    16    12    15   1
    17    13    14   1
    18    13    16   1
    19     1    17   1
    20     3    18   1
    21     4    19   1
    22     8    20   1
    23     8    21   1
    24    11    22   1
    25    15    23   1
    26    15    24   1
    27    16    25   1
    28    16    26   1
    29    16    27   1
@<TRIPOS>SUBSTRUCTURE
     1  MOL      1

