@<TRIPOS>MOLECULE
3ao4_ligand_052
    27    29
SMALL
GAST_HUCK
****
This file was generated by PARSER (from files_GN.cpp)

@<TRIPOS>ATOM
      1 C1          4.6093   13.9403  -10.3375 C.ar        1 MOL      -0.0342
      2 C2          3.4243   13.2556  -10.7089 C.ar        1 MOL      -0.0388
      3 C3          3.2345   12.9484  -12.0863 C.ar        1 MOL      -0.0738
      4 C4          4.1987   13.3025  -13.0548 C.ar        1 MOL      -0.0397
      5 C5          5.3615   13.9719  -12.6421 C.ar        1 MOL       0.1245
      6 C6          5.5572   14.2913  -11.3097 C.ar        1 MOL       0.1240
      7 O7          6.7266   14.9290  -11.1083 O.3         1 MOL      -0.2908
      8 C8          7.2172   15.0673  -12.4562 C.3         1 MOL       0.1873
      9 O9          6.3959   14.3639  -13.4088 O.3         1 MOL      -0.2900
     10 C10         2.4605   12.8881   -9.7260 C.2         1 MOL       0.0041
     11 C11         2.4956   13.0905   -8.3463 C.2         1 MOL      -0.0320
     12 C12         1.3295   12.5478   -7.8347 C.2         1 MOL       0.1510
     13 N13         0.6387   12.0490   -8.8777 N.pl3       1 MOL      -0.1966
     14 N14         1.3011   12.2493   -9.9783 N.2         1 MOL      -0.2405
     15 N15         0.9811   12.5380   -6.5368 N.pl3       1 MOL      -0.3098
     16 C16        -0.6267   11.3930   -8.8227 C.3         1 MOL       0.0578
     17 H1          4.7980   14.1860   -9.3680 H           1 MOL       0.0507
     18 H2          2.3955   12.4561  -12.4057 H           1 MOL       0.0503
     19 H3          4.0591   13.0719  -14.0403 H           1 MOL       0.0514
     20 H4          8.2378   14.6827  -12.5062 H           1 MOL       0.0974
     21 H5          7.2370   16.1278  -12.7198 H           1 MOL       0.0974
     22 H6          3.2282   13.5445   -7.7974 H           1 MOL       0.0169
     23 H7          1.5684   12.9342   -5.8735 H           1 MOL       0.1782
     24 H8          0.1417   12.1369   -6.2619 H           1 MOL       0.1782
     25 H9         -0.9682   11.1138   -9.8221 H           1 MOL       0.0589
     26 H10        -1.3709   12.0557   -8.3770 H           1 MOL       0.0589
     27 H11        -0.5501   10.4865   -8.2189 H           1 MOL       0.0589
@<TRIPOS>BOND
     1     1     2  ar
     2     1     6  ar
     3     2     3  ar
     4     2    10   1
     5     3     4  ar
     6     4     5  ar
     7     5     6  ar
     8     5     9   1
     9     6     7   1
    10     7     8   1
    11     8     9   1
    12    10    11   1
    13    10    14   2
    14    11    12   2
    15    12    13   1
    16    12    15   1
    17    13    14   1
    18    13    16   1
    19     1    17   1
    20     3    18   1
    21     4    19   1
    22     8    20   1
    23     8    21   1
    24    11    22   1
    25    15    23   1
    26    15    24   1
    27    16    25   1
    28    16    26   1
    29    16    27   1
@<TRIPOS>SUBSTRUCTURE
     1  MOL      1

