@<TRIPOS>MOLECULE
3ao4_ligand_019
    27    29
SMALL
GAST_HUCK
****
This file was generated by PARSER (from files_GN.cpp)

@<TRIPOS>ATOM
      1 C1          1.8759   11.5816  -13.1766 C.ar        1 MOL      -0.0342
      2 C2          1.0532   12.0574  -14.2344 C.ar        1 MOL      -0.0388
      3 C3          1.6809   12.4166  -15.4592 C.ar        1 MOL      -0.0738
      4 C4          3.0754   12.2995  -15.6282 C.ar        1 MOL      -0.0397
      5 C5          3.8516   11.8226  -14.5615 C.ar        1 MOL       0.1245
      6 C6          3.2661   11.4717  -13.3559 C.ar        1 MOL       0.1240
      7 O7          4.1816   11.0484  -12.4589 O.3         1 MOL      -0.2908
      8 C8          5.4093   11.2348  -13.1848 C.3         1 MOL       0.1873
      9 O9          5.1833   11.6387  -14.5485 O.3         1 MOL      -0.2900
     10 C10        -0.3577   12.1585  -14.0563 C.2         1 MOL       0.0041
     11 C11        -1.3270   12.6112  -14.9502 C.2         1 MOL      -0.0320
     12 C12        -2.5449   12.5109  -14.2984 C.2         1 MOL       0.1510
     13 N13        -2.2980   12.0171  -13.0695 N.pl3       1 MOL      -0.1966
     14 N14        -1.0216   11.8127  -12.9334 N.2         1 MOL      -0.2405
     15 N15        -3.7360   12.8486  -14.8234 N.pl3       1 MOL      -0.3098
     16 C16        -3.2604   11.7505  -12.0491 C.3         1 MOL       0.0578
     17 H1          1.4770   11.3110  -12.2752 H           1 MOL       0.0507
     18 H2          1.1338   12.7673  -16.2477 H           1 MOL       0.0503
     19 H3          3.5173   12.5562  -16.5134 H           1 MOL       0.0514
     20 H4          5.9761   10.3017  -13.1715 H           1 MOL       0.0974
     21 H5          6.0013   12.0018  -12.6803 H           1 MOL       0.0974
     22 H6         -1.1899   12.9524  -15.9029 H           1 MOL       0.0169
     23 H7         -3.7939   13.2161  -15.7202 H           1 MOL       0.1782
     24 H8         -4.5443   12.7417  -14.2983 H           1 MOL       0.1782
     25 H9         -2.7812   11.3351  -11.1593 H           1 MOL       0.0589
     26 H10        -4.0007   11.0336  -12.4113 H           1 MOL       0.0589
     27 H11        -3.7676   12.6754  -11.7678 H           1 MOL       0.0589
@<TRIPOS>BOND
     1     1     2  ar
     2     1     6  ar
     3     2     3  ar
     4     2    10   1
     5     3     4  ar
     6     4     5  ar
     7     5     6  ar
     8     5     9   1
     9     6     7   1
    10     7     8   1
    11     8     9   1
    12    10    11   1
    13    10    14   2
    14    11    12   2
    15    12    13   1
    16    12    15   1
    17    13    14   1
    18    13    16   1
    19     1    17   1
    20     3    18   1
    21     4    19   1
    22     8    20   1
    23     8    21   1
    24    11    22   1
    25    15    23   1
    26    15    24   1
    27    16    25   1
    28    16    26   1
    29    16    27   1
@<TRIPOS>SUBSTRUCTURE
     1  MOL      1

