@<TRIPOS>MOLECULE
3ao4_ligand_041
    27    29
SMALL
GAST_HUCK
****
This file was generated by PARSER (from files_GN.cpp)

@<TRIPOS>ATOM
      1 C1         -1.0204    8.5925  -13.1724 C.ar        1 MOL      -0.0342
      2 C2         -1.1487    8.6761  -14.5837 C.ar        1 MOL      -0.0388
      3 C3         -0.3856    7.7750  -15.3787 C.ar        1 MOL      -0.0738
      4 C4          0.4662    6.8177  -14.7854 C.ar        1 MOL      -0.0397
      5 C5          0.5570    6.7632  -13.3854 C.ar        1 MOL       0.1245
      6 C6         -0.1686    7.6384  -12.5968 C.ar        1 MOL       0.1240
      7 O7          0.0452    7.4337  -11.2851 O.3         1 MOL      -0.2908
      8 C8          1.0503    6.4035  -11.3107 C.3         1 MOL       0.1873
      9 O9          1.2892    5.9119  -12.6439 O.3         1 MOL      -0.2900
     10 C10        -2.0190    9.6322  -15.1828 C.2         1 MOL       0.0041
     11 C11        -2.8448   10.5695  -14.5620 C.2         1 MOL      -0.0320
     12 C12        -3.4945   11.2565  -15.5725 C.2         1 MOL       0.1510
     13 N13        -3.0584   10.7447  -16.7401 N.pl3       1 MOL      -0.1966
     14 N14        -2.1982    9.7970  -16.5090 N.2         1 MOL      -0.2405
     15 N15        -4.3848   12.2462  -15.3876 N.pl3       1 MOL      -0.3098
     16 C16        -3.4597   11.1523  -18.0469 C.3         1 MOL       0.0578
     17 H1         -1.5403    9.2116  -12.5520 H           1 MOL       0.0507
     18 H2         -0.4423    7.7977  -16.4008 H           1 MOL       0.0503
     19 H3          1.0073    6.1684  -15.3609 H           1 MOL       0.0514
     20 H4          0.7297    5.5775  -10.6731 H           1 MOL       0.0974
     21 H5          1.9833    6.8055  -10.9083 H           1 MOL       0.0974
     22 H6         -2.9722   10.7308  -13.5607 H           1 MOL       0.0169
     23 H7         -4.6255   12.5289  -14.4908 H           1 MOL       0.1782
     24 H8         -4.7876   12.6879  -16.1503 H           1 MOL       0.1782
     25 H9         -2.9281   10.5846  -18.8136 H           1 MOL       0.0589
     26 H10        -3.2419   12.2127  -18.1883 H           1 MOL       0.0589
     27 H11        -4.5311   10.9873  -18.1757 H           1 MOL       0.0589
@<TRIPOS>BOND
     1     1     2  ar
     2     1     6  ar
     3     2     3  ar
     4     2    10   1
     5     3     4  ar
     6     4     5  ar
     7     5     6  ar
     8     5     9   1
     9     6     7   1
    10     7     8   1
    11     8     9   1
    12    10    11   1
    13    10    14   2
    14    11    12   2
    15    12    13   1
    16    12    15   1
    17    13    14   1
    18    13    16   1
    19     1    17   1
    20     3    18   1
    21     4    19   1
    22     8    20   1
    23     8    21   1
    24    11    22   1
    25    15    23   1
    26    15    24   1
    27    16    25   1
    28    16    26   1
    29    16    27   1
@<TRIPOS>SUBSTRUCTURE
     1  MOL      1

