@<TRIPOS>MOLECULE
3ao4_ligand_034
    27    29
SMALL
GAST_HUCK
****
This file was generated by PARSER (from files_GN.cpp)

@<TRIPOS>ATOM
      1 C1         -2.0248   11.8081  -10.7781 C.ar        1 MOL      -0.0342
      2 C2         -1.1178   11.7755   -9.6857 C.ar        1 MOL      -0.0388
      3 C3          0.0917   11.0428   -9.8441 C.ar        1 MOL      -0.0738
      4 C4          0.3841   10.3649  -11.0458 C.ar        1 MOL      -0.0397
      5 C5         -0.5425   10.4143  -12.0991 C.ar        1 MOL       0.1245
      6 C6         -1.7253   11.1212  -11.9657 C.ar        1 MOL       0.1240
      7 O7         -2.4802   11.0536  -13.0782 O.3         1 MOL      -0.2908
      8 C8         -1.7110   10.1567  -13.9018 C.3         1 MOL       0.1873
      9 O9         -0.4359    9.8382  -13.3106 O.3         1 MOL      -0.2900
     10 C10        -1.4003   12.4513   -8.4628 C.2         1 MOL       0.0041
     11 C11        -2.5095   13.2278   -8.1339 C.2         1 MOL      -0.0320
     12 C12        -2.3023   13.6948   -6.8468 C.2         1 MOL       0.1510
     13 N13        -1.1171   13.2033   -6.4360 N.pl3       1 MOL      -0.1966
     14 N14        -0.5930   12.4798   -7.3807 N.2         1 MOL      -0.2405
     15 N15        -3.1461   14.4997   -6.1793 N.pl3       1 MOL      -0.3098
     16 C16        -0.4983   13.4395   -5.1719 C.3         1 MOL       0.0578
     17 H1         -2.9083   12.3171  -10.7263 H           1 MOL       0.0507
     18 H2          0.7762   10.9946   -9.0860 H           1 MOL       0.0503
     19 H3          1.2571    9.8435  -11.1509 H           1 MOL       0.0514
     20 H4         -1.5490   10.6175  -14.8785 H           1 MOL       0.0974
     21 H5         -2.2769    9.2330  -14.0491 H           1 MOL       0.0974
     22 H6         -3.3175   13.4472   -8.7193 H           1 MOL       0.0169
     23 H7         -3.9615   14.8061   -6.6068 H           1 MOL       0.1782
     24 H8         -2.9344   14.7907   -5.2788 H           1 MOL       0.1782
     25 H9          0.4576   12.9161   -5.0987 H           1 MOL       0.0589
     26 H10        -1.1483   13.0894   -4.3675 H           1 MOL       0.0589
     27 H11        -0.3167   14.5079   -5.0424 H           1 MOL       0.0589
@<TRIPOS>BOND
     1     1     2  ar
     2     1     6  ar
     3     2     3  ar
     4     2    10   1
     5     3     4  ar
     6     4     5  ar
     7     5     6  ar
     8     5     9   1
     9     6     7   1
    10     7     8   1
    11     8     9   1
    12    10    11   1
    13    10    14   2
    14    11    12   2
    15    12    13   1
    16    12    15   1
    17    13    14   1
    18    13    16   1
    19     1    17   1
    20     3    18   1
    21     4    19   1
    22     8    20   1
    23     8    21   1
    24    11    22   1
    25    15    23   1
    26    15    24   1
    27    16    25   1
    28    16    26   1
    29    16    27   1
@<TRIPOS>SUBSTRUCTURE
     1  MOL      1

