@<TRIPOS>MOLECULE
3ao4_ligand_027
    27    29
SMALL
GAST_HUCK
****
This file was generated by PARSER (from files_GN.cpp)

@<TRIPOS>ATOM
      1 C1         -1.3783   12.0370   -8.6719 C.ar        1 MOL      -0.0342
      2 C2         -1.1213   11.9856  -10.0681 C.ar        1 MOL      -0.0388
      3 C3         -0.0652   11.1478  -10.5224 C.ar        1 MOL      -0.0738
      4 C4          0.6933   10.3724   -9.6209 C.ar        1 MOL      -0.0397
      5 C5          0.3928   10.4345   -8.2508 C.ar        1 MOL       0.1245
      6 C6         -0.6215   11.2521   -7.7870 C.ar        1 MOL       0.1240
      7 O7         -0.7651   11.1673   -6.4506 O.3         1 MOL      -0.2908
      8 C8          0.3277   10.2976   -6.0942 C.3         1 MOL       0.1873
      9 O9          0.9795    9.7457   -7.2556 O.3         1 MOL      -0.2900
     10 C10        -1.9066   12.7602  -10.9698 C.2         1 MOL       0.0041
     11 C11        -1.7825   12.8971  -12.3508 C.2         1 MOL      -0.0320
     12 C12        -2.7574   13.7975  -12.7496 C.2         1 MOL       0.1510
     13 N13        -3.4297   14.1684  -11.6410 N.pl3       1 MOL      -0.1966
     14 N14        -2.9404   13.5485  -10.6084 N.2         1 MOL      -0.2405
     15 N15        -2.9579   14.2062  -14.0136 N.pl3       1 MOL      -0.3098
     16 C16        -4.5137   15.0906  -11.5667 C.3         1 MOL       0.0578
     17 H1         -2.1233   12.6247   -8.2881 H           1 MOL       0.0507
     18 H2          0.1622   11.0817  -11.5161 H           1 MOL       0.0503
     19 H3          1.4463    9.7701   -9.9579 H           1 MOL       0.0514
     20 H4         -0.0490    9.4862   -5.4664 H           1 MOL       0.0974
     21 H5          1.0605   10.8653   -5.5150 H           1 MOL       0.0974
     22 H6         -1.1102   12.4389  -12.9657 H           1 MOL       0.0169
     23 H7         -2.3893   13.8737  -14.7256 H           1 MOL       0.1782
     24 H8         -3.6174   14.8911  -14.2049 H           1 MOL       0.1782
     25 H9         -4.8633   15.2053  -10.5368 H           1 MOL       0.0589
     26 H10        -5.3492   14.7399  -12.1732 H           1 MOL       0.0589
     27 H11        -4.1929   16.0674  -11.9360 H           1 MOL       0.0589
@<TRIPOS>BOND
     1     1     2  ar
     2     1     6  ar
     3     2     3  ar
     4     2    10   1
     5     3     4  ar
     6     4     5  ar
     7     5     6  ar
     8     5     9   1
     9     6     7   1
    10     7     8   1
    11     8     9   1
    12    10    11   1
    13    10    14   2
    14    11    12   2
    15    12    13   1
    16    12    15   1
    17    13    14   1
    18    13    16   1
    19     1    17   1
    20     3    18   1
    21     4    19   1
    22     8    20   1
    23     8    21   1
    24    11    22   1
    25    15    23   1
    26    15    24   1
    27    16    25   1
    28    16    26   1
    29    16    27   1
@<TRIPOS>SUBSTRUCTURE
     1  MOL      1

