@<TRIPOS>MOLECULE
3ao4_ligand_024
    27    29
SMALL
GAST_HUCK
****
This file was generated by PARSER (from files_GN.cpp)

@<TRIPOS>ATOM
      1 C1          1.7427   11.2818  -13.2647 C.ar        1 MOL      -0.0342
      2 C2          0.7158   11.7038  -12.3783 C.ar        1 MOL      -0.0388
      3 C3          0.7296   11.1958  -11.0498 C.ar        1 MOL      -0.0738
      4 C4          1.7323   10.3047  -10.6159 C.ar        1 MOL      -0.0397
      5 C5          2.7307    9.9132  -11.5202 C.ar        1 MOL       0.1245
      6 C6          2.7344   10.3909  -12.8200 C.ar        1 MOL       0.1240
      7 O7          3.7777    9.9147  -13.5249 O.3         1 MOL      -0.2908
      8 C8          4.3522    8.9762  -12.5957 C.3         1 MOL       0.1873
      9 O9          3.7725    9.0961  -11.2835 O.3         1 MOL      -0.2900
     10 C10        -0.2975   12.6186  -12.7875 C.2         1 MOL       0.0041
     11 C11        -0.4906   13.2165  -14.0314 C.2         1 MOL      -0.0320
     12 C12        -1.6069   14.0274  -13.9123 C.2         1 MOL       0.1510
     13 N13        -2.0502   13.9092  -12.6455 N.pl3       1 MOL      -0.1966
     14 N14        -1.2858   13.0830  -11.9952 N.2         1 MOL      -0.2405
     15 N15        -2.1265   14.7720  -14.9037 N.pl3       1 MOL      -0.3098
     16 C16        -3.1792   14.5685  -12.0741 C.3         1 MOL       0.0578
     17 H1          1.7887   11.6144  -14.2284 H           1 MOL       0.0507
     18 H2          0.0095   11.4723  -10.3780 H           1 MOL       0.0503
     19 H3          1.7379    9.9513   -9.6564 H           1 MOL       0.0514
     20 H4          5.4294    9.1465  -12.5273 H           1 MOL       0.0974
     21 H5          4.1886    7.9596  -12.9664 H           1 MOL       0.0974
     22 H6          0.0674   13.0931  -14.8791 H           1 MOL       0.0169
     23 H7         -1.7162   14.7652  -15.7829 H           1 MOL       0.1782
     24 H8         -2.9113   15.3187  -14.7422 H           1 MOL       0.1782
     25 H9         -3.3366   14.2544  -11.0400 H           1 MOL       0.0589
     26 H10        -4.0780   14.3313  -12.6463 H           1 MOL       0.0589
     27 H11        -3.0236   15.6490  -12.0882 H           1 MOL       0.0589
@<TRIPOS>BOND
     1     1     2  ar
     2     1     6  ar
     3     2     3  ar
     4     2    10   1
     5     3     4  ar
     6     4     5  ar
     7     5     6  ar
     8     5     9   1
     9     6     7   1
    10     7     8   1
    11     8     9   1
    12    10    11   1
    13    10    14   2
    14    11    12   2
    15    12    13   1
    16    12    15   1
    17    13    14   1
    18    13    16   1
    19     1    17   1
    20     3    18   1
    21     4    19   1
    22     8    20   1
    23     8    21   1
    24    11    22   1
    25    15    23   1
    26    15    24   1
    27    16    25   1
    28    16    26   1
    29    16    27   1
@<TRIPOS>SUBSTRUCTURE
     1  MOL      1

