@<TRIPOS>MOLECULE
3ao4_ligand_049
    27    29
SMALL
GAST_HUCK
****
This file was generated by PARSER (from files_GN.cpp)

@<TRIPOS>ATOM
      1 C1          3.1108   14.9932  -11.3719 C.ar        1 MOL      -0.0342
      2 C2          4.4751   15.3203  -11.5944 C.ar        1 MOL      -0.0388
      3 C3          5.2647   14.4084  -12.3480 C.ar        1 MOL      -0.0738
      4 C4          4.7146   13.2197  -12.8717 C.ar        1 MOL      -0.0397
      5 C5          3.3601   12.9378  -12.6385 C.ar        1 MOL       0.1245
      6 C6          2.5752   13.8054  -11.8979 C.ar        1 MOL       0.1240
      7 O7          1.3079   13.3679  -11.7870 O.3         1 MOL      -0.2908
      8 C8          1.3805   12.0899  -12.4455 C.3         1 MOL       0.1873
      9 O9          2.6590   11.8741  -13.0728 O.3         1 MOL      -0.2900
     10 C10         5.0468   16.5233  -11.0850 C.2         1 MOL       0.0041
     11 C11         4.4472   17.5343  -10.3374 C.2         1 MOL      -0.0320
     12 C12         5.4278   18.4767  -10.0765 C.2         1 MOL       0.1510
     13 N13         6.5588   18.0341  -10.6580 N.pl3       1 MOL      -0.1966
     14 N14         6.3335   16.8949  -11.2426 N.2         1 MOL      -0.2405
     15 N15         5.2575   19.5958   -9.3477 N.pl3       1 MOL      -0.3098
     16 C16         7.8330   18.6736  -10.6332 C.3         1 MOL       0.0578
     17 H1          2.4940   15.6056  -10.8376 H           1 MOL       0.0507
     18 H2          6.2524   14.5995  -12.5325 H           1 MOL       0.0503
     19 H3          5.2884   12.5738  -13.4170 H           1 MOL       0.0514
     20 H4          0.5947   12.0319  -13.2011 H           1 MOL       0.0974
     21 H5          1.2091   11.2996  -11.7106 H           1 MOL       0.0974
     22 H6          3.4788   17.5867  -10.0240 H           1 MOL       0.0169
     23 H7          4.4074   19.7715   -8.9112 H           1 MOL       0.1782
     24 H8          6.0061   20.1945   -9.1958 H           1 MOL       0.1782
     25 H9          8.5781   18.0885  -11.1786 H           1 MOL       0.0589
     26 H10         8.1705   18.7857   -9.6015 H           1 MOL       0.0589
     27 H11         7.7603   19.6595  -11.0964 H           1 MOL       0.0589
@<TRIPOS>BOND
     1     1     2  ar
     2     1     6  ar
     3     2     3  ar
     4     2    10   1
     5     3     4  ar
     6     4     5  ar
     7     5     6  ar
     8     5     9   1
     9     6     7   1
    10     7     8   1
    11     8     9   1
    12    10    11   1
    13    10    14   2
    14    11    12   2
    15    12    13   1
    16    12    15   1
    17    13    14   1
    18    13    16   1
    19     1    17   1
    20     3    18   1
    21     4    19   1
    22     8    20   1
    23     8    21   1
    24    11    22   1
    25    15    23   1
    26    15    24   1
    27    16    25   1
    28    16    26   1
    29    16    27   1
@<TRIPOS>SUBSTRUCTURE
     1  MOL      1

