@<TRIPOS>MOLECULE
3ao4_ligand_048
    27    29
SMALL
GAST_HUCK
****
This file was generated by PARSER (from files_GN.cpp)

@<TRIPOS>ATOM
      1 C1          8.6899   17.0849  -12.3440 C.ar        1 MOL      -0.0342
      2 C2          8.2094   17.8501  -11.2478 C.ar        1 MOL      -0.0388
      3 C3          9.1639   18.4778  -10.4019 C.ar        1 MOL      -0.0738
      4 C4         10.5473   18.3590  -10.6443 C.ar        1 MOL      -0.0397
      5 C5         10.9838   17.6019  -11.7428 C.ar        1 MOL       0.1245
      6 C6         10.0716   16.9711  -12.5722 C.ar        1 MOL       0.1240
      7 O7         10.6775   16.2976  -13.5665 O.3         1 MOL      -0.2908
      8 C8         12.0685   16.4806  -13.2405 C.3         1 MOL       0.1873
      9 O9         12.2514   17.3981  -12.1447 O.3         1 MOL      -0.2900
     10 C10         6.8071   17.9722  -11.0244 C.2         1 MOL       0.0041
     11 C11         6.1318   18.6527  -10.0139 C.2         1 MOL      -0.0320
     12 C12         4.7797   18.4578  -10.2406 C.2         1 MOL       0.1510
     13 N13         4.6689   17.6957  -11.3451 N.pl3       1 MOL      -0.1966
     14 N14         5.8538   17.4156  -11.7989 N.2         1 MOL      -0.2405
     15 N15         3.7860   18.9542   -9.4827 N.pl3       1 MOL      -0.3098
     16 C16         3.4591   17.2439  -11.9513 C.3         1 MOL       0.0578
     17 H1          8.0503   16.6091  -12.9840 H           1 MOL       0.0507
     18 H2          8.8663   19.0379   -9.6012 H           1 MOL       0.0503
     19 H3         11.2256   18.8210  -10.0349 H           1 MOL       0.0514
     20 H4         12.5944   16.8585  -14.1197 H           1 MOL       0.0974
     21 H5         12.5017   15.5141  -12.9708 H           1 MOL       0.0974
     22 H6          6.5347   19.1920   -9.2468 H           1 MOL       0.0169
     23 H7          3.9902   19.4918   -8.7018 H           1 MOL       0.1782
     24 H8          2.8614   18.7722   -9.7131 H           1 MOL       0.1782
     25 H9          3.6648   16.6634  -12.8532 H           1 MOL       0.0589
     26 H10         2.8391   18.0991  -12.2254 H           1 MOL       0.0589
     27 H11         2.9072   16.6128  -11.2525 H           1 MOL       0.0589
@<TRIPOS>BOND
     1     1     2  ar
     2     1     6  ar
     3     2     3  ar
     4     2    10   1
     5     3     4  ar
     6     4     5  ar
     7     5     6  ar
     8     5     9   1
     9     6     7   1
    10     7     8   1
    11     8     9   1
    12    10    11   1
    13    10    14   2
    14    11    12   2
    15    12    13   1
    16    12    15   1
    17    13    14   1
    18    13    16   1
    19     1    17   1
    20     3    18   1
    21     4    19   1
    22     8    20   1
    23     8    21   1
    24    11    22   1
    25    15    23   1
    26    15    24   1
    27    16    25   1
    28    16    26   1
    29    16    27   1
@<TRIPOS>SUBSTRUCTURE
     1  MOL      1

