@<TRIPOS>MOLECULE
3ao4_ligand_016
    27    29
SMALL
GAST_HUCK
****
This file was generated by PARSER (from files_GN.cpp)

@<TRIPOS>ATOM
      1 C1          1.2278    5.0640   -3.3053 C.ar        1 MOL      -0.0342
      2 C2          2.1535    4.1662   -3.9040 C.ar        1 MOL      -0.0388
      3 C3          2.6362    4.4712   -5.2060 C.ar        1 MOL      -0.0738
      4 C4          2.2152    5.6292   -5.8900 C.ar        1 MOL      -0.0397
      5 C5          1.2909    6.4858   -5.2729 C.ar        1 MOL       0.1245
      6 C6          0.8087    6.2084   -4.0061 C.ar        1 MOL       0.1240
      7 O7         -0.0464    7.1571   -3.5757 O.3         1 MOL      -0.2908
      8 C8         -0.1358    8.0186   -4.7276 C.3         1 MOL       0.1873
      9 O9          0.7787    7.6265   -5.7695 O.3         1 MOL      -0.2900
     10 C10         2.6013    2.9956   -3.2271 C.2         1 MOL       0.0041
     11 C11         2.2704    2.5400   -1.9508 C.2         1 MOL      -0.0320
     12 C12         2.9735    1.3659   -1.7496 C.2         1 MOL       0.1510
     13 N13         3.6906    1.1387   -2.8665 N.pl3       1 MOL      -0.1966
     14 N14         3.4698    2.0905   -3.7251 N.2         1 MOL      -0.2405
     15 N15         2.9296    0.6193   -0.6331 N.pl3       1 MOL      -0.3098
     16 C16         4.5721    0.0409   -3.1004 C.3         1 MOL       0.0578
     17 H1          0.8561    4.9043   -2.3693 H           1 MOL       0.0507
     18 H2          3.3032    3.8562   -5.6761 H           1 MOL       0.0503
     19 H3          2.5697    5.8491   -6.8232 H           1 MOL       0.0514
     20 H4          0.0825    9.0450   -4.4262 H           1 MOL       0.0974
     21 H5         -1.1550    7.9839   -5.1201 H           1 MOL       0.0974
     22 H6          1.6433    2.9798   -1.2769 H           1 MOL       0.0169
     23 H7          2.3716    0.8944    0.1119 H           1 MOL       0.1782
     24 H8          3.4587   -0.1893   -0.5675 H           1 MOL       0.1782
     25 H9          5.0180    0.0991   -4.0950 H           1 MOL       0.0589
     26 H10         4.0228   -0.8996   -3.0211 H           1 MOL       0.0589
     27 H11         5.3744    0.0480   -2.3596 H           1 MOL       0.0589
@<TRIPOS>BOND
     1     1     2  ar
     2     1     6  ar
     3     2     3  ar
     4     2    10   1
     5     3     4  ar
     6     4     5  ar
     7     5     6  ar
     8     5     9   1
     9     6     7   1
    10     7     8   1
    11     8     9   1
    12    10    11   1
    13    10    14   2
    14    11    12   2
    15    12    13   1
    16    12    15   1
    17    13    14   1
    18    13    16   1
    19     1    17   1
    20     3    18   1
    21     4    19   1
    22     8    20   1
    23     8    21   1
    24    11    22   1
    25    15    23   1
    26    15    24   1
    27    16    25   1
    28    16    26   1
    29    16    27   1
@<TRIPOS>SUBSTRUCTURE
     1  MOL      1

