@<TRIPOS>MOLECULE
3ao4_ligand_036
    27    29
SMALL
GAST_HUCK
****
This file was generated by PARSER (from files_GN.cpp)

@<TRIPOS>ATOM
      1 C1          5.9859    2.7508   -5.3193 C.ar        1 MOL      -0.0342
      2 C2          4.9264    3.6736   -5.5298 C.ar        1 MOL      -0.0388
      3 C3          4.9365    4.4362   -6.7307 C.ar        1 MOL      -0.0738
      4 C4          5.9636    4.2884   -7.6862 C.ar        1 MOL      -0.0397
      5 C5          6.9913    3.3668   -7.4412 C.ar        1 MOL       0.1245
      6 C6          6.9996    2.6078   -6.2833 C.ar        1 MOL       0.1240
      7 O7          8.0550    1.7745   -6.2403 O.3         1 MOL      -0.2908
      8 C8          8.7788    2.1559   -7.4260 C.3         1 MOL       0.1873
      9 O9          8.0365    3.0844   -8.2388 O.3         1 MOL      -0.2900
     10 C10         3.8757    3.8354   -4.5788 C.2         1 MOL       0.0041
     11 C11         3.6850    3.1704   -3.3695 C.2         1 MOL      -0.0320
     12 C12         2.5190    3.6763   -2.8199 C.2         1 MOL       0.1510
     13 N13         2.0469    4.6029   -3.6753 N.pl3       1 MOL      -0.1966
     14 N14         2.8449    4.6969   -4.6985 N.2         1 MOL      -0.2405
     15 N15         1.9950    3.2947   -1.6416 N.pl3       1 MOL      -0.3098
     16 C16         0.8578    5.3738   -3.5197 C.3         1 MOL       0.0578
     17 H1          6.0366    2.1707   -4.4795 H           1 MOL       0.0507
     18 H2          4.1918    5.1083   -6.9257 H           1 MOL       0.0503
     19 H3          5.9607    4.8399   -8.5463 H           1 MOL       0.0514
     20 H4          9.0005    1.2631   -8.0143 H           1 MOL       0.0974
     21 H5          9.7245    2.6173   -7.1302 H           1 MOL       0.0974
     22 H6          4.2726    2.4468   -2.9533 H           1 MOL       0.0169
     23 H7          2.4534    2.6341   -1.0984 H           1 MOL       0.1782
     24 H8          1.1735    3.6992   -1.3183 H           1 MOL       0.1782
     25 H9          0.7384    6.0769   -4.3469 H           1 MOL       0.0589
     26 H10         0.8966    5.9399   -2.5873 H           1 MOL       0.0589
     27 H11        -0.0096    4.7109   -3.4997 H           1 MOL       0.0589
@<TRIPOS>BOND
     1     1     2  ar
     2     1     6  ar
     3     2     3  ar
     4     2    10   1
     5     3     4  ar
     6     4     5  ar
     7     5     6  ar
     8     5     9   1
     9     6     7   1
    10     7     8   1
    11     8     9   1
    12    10    11   1
    13    10    14   2
    14    11    12   2
    15    12    13   1
    16    12    15   1
    17    13    14   1
    18    13    16   1
    19     1    17   1
    20     3    18   1
    21     4    19   1
    22     8    20   1
    23     8    21   1
    24    11    22   1
    25    15    23   1
    26    15    24   1
    27    16    25   1
    28    16    26   1
    29    16    27   1
@<TRIPOS>SUBSTRUCTURE
     1  MOL      1

