@<TRIPOS>MOLECULE
3ao4_ligand_005
    27    29
SMALL
GAST_HUCK
****
This file was generated by PARSER (from files_GN.cpp)

@<TRIPOS>ATOM
      1 C1          2.0626   14.9706  -11.6248 C.ar        1 MOL      -0.0342
      2 C2          0.9606   15.6294  -12.2341 C.ar        1 MOL      -0.0388
      3 C3          1.1539   16.9559  -12.7092 C.ar        1 MOL      -0.0738
      4 C4          2.4015   17.6021  -12.5893 C.ar        1 MOL      -0.0397
      5 C5          3.4679   16.9176  -11.9868 C.ar        1 MOL       0.1245
      6 C6          3.3002   15.6261  -11.5138 C.ar        1 MOL       0.1240
      7 O7          4.4384   15.1308  -10.9935 O.3         1 MOL      -0.2908
      8 C8          5.3106   16.2731  -11.0547 C.3         1 MOL       0.1873
      9 O9          4.7278   17.3562  -11.8009 O.3         1 MOL      -0.2900
     10 C10        -0.2914   14.9571  -12.3648 C.2         1 MOL       0.0041
     11 C11        -1.4832   15.4261  -12.9131 C.2         1 MOL      -0.0320
     12 C12        -2.4016   14.3951  -12.7934 C.2         1 MOL       0.1510
     13 N13        -1.7721   13.3669  -12.1974 N.pl3       1 MOL      -0.1966
     14 N14        -0.5407   13.6972  -11.9516 N.2         1 MOL      -0.2405
     15 N15        -3.6797   14.4462  -13.2079 N.pl3       1 MOL      -0.3098
     16 C16        -2.3447   12.1007  -11.8714 C.3         1 MOL       0.0578
     17 H1          1.9848   14.0175  -11.2685 H           1 MOL       0.0507
     18 H2          0.3923   17.4691  -13.1564 H           1 MOL       0.0503
     19 H3          2.5311   18.5539  -12.9384 H           1 MOL       0.0514
     20 H4          6.2517   15.9771  -11.5171 H           1 MOL       0.0974
     21 H5          5.5215   16.6197  -10.0398 H           1 MOL       0.0974
     22 H6         -1.6610   16.3448  -13.3236 H           1 MOL       0.0169
     23 H7         -4.0149   15.2536  -13.6216 H           1 MOL       0.1782
     24 H8         -4.2702   13.6861  -13.0824 H           1 MOL       0.1782
     25 H9         -1.6073   11.4442  -11.3994 H           1 MOL       0.0589
     26 H10        -2.7077   11.6099  -12.7770 H           1 MOL       0.0589
     27 H11        -3.1782   12.2363  -11.1794 H           1 MOL       0.0589
@<TRIPOS>BOND
     1     1     2  ar
     2     1     6  ar
     3     2     3  ar
     4     2    10   1
     5     3     4  ar
     6     4     5  ar
     7     5     6  ar
     8     5     9   1
     9     6     7   1
    10     7     8   1
    11     8     9   1
    12    10    11   1
    13    10    14   2
    14    11    12   2
    15    12    13   1
    16    12    15   1
    17    13    14   1
    18    13    16   1
    19     1    17   1
    20     3    18   1
    21     4    19   1
    22     8    20   1
    23     8    21   1
    24    11    22   1
    25    15    23   1
    26    15    24   1
    27    16    25   1
    28    16    26   1
    29    16    27   1
@<TRIPOS>SUBSTRUCTURE
     1  MOL      1

