@<TRIPOS>MOLECULE
3ao4_ligand_023
    27    29
SMALL
GAST_HUCK
****
This file was generated by PARSER (from files_GN.cpp)

@<TRIPOS>ATOM
      1 C1          2.4878   10.8909  -11.3663 C.ar        1 MOL      -0.0342
      2 C2          2.7321   11.8679  -10.3643 C.ar        1 MOL      -0.0388
      3 C3          3.7206   12.8562  -10.6218 C.ar        1 MOL      -0.0738
      4 C4          4.4327   12.8802  -11.8374 C.ar        1 MOL      -0.0397
      5 C5          4.1576   11.9035  -12.8079 C.ar        1 MOL       0.1245
      6 C6          3.2077   10.9234  -12.5725 C.ar        1 MOL       0.1240
      7 O7          3.0837   10.0826  -13.6150 O.3         1 MOL      -0.2908
      8 C8          4.1111   10.5621  -14.5033 C.3         1 MOL       0.1873
      9 O9          4.7120   11.7820  -14.0273 O.3         1 MOL      -0.2900
     10 C10         1.9931   11.8388   -9.1454 C.2         1 MOL       0.0041
     11 C11         2.0849   12.6802   -8.0391 C.2         1 MOL      -0.0320
     12 C12         1.1551   12.2256   -7.1187 C.2         1 MOL       0.1510
     13 N13         0.5419   11.1600   -7.6675 N.pl3       1 MOL      -0.1966
     14 N14         1.0335   10.9387   -8.8500 N.2         1 MOL      -0.2405
     15 N15         0.9303   12.7692   -5.9093 N.pl3       1 MOL      -0.3098
     16 C16        -0.4884   10.3706   -7.0751 C.3         1 MOL       0.0578
     17 H1          1.7906   10.1548  -11.2357 H           1 MOL       0.0507
     18 H2          3.9320   13.5786   -9.9306 H           1 MOL       0.0503
     19 H3          5.1367   13.5995  -12.0163 H           1 MOL       0.0514
     20 H4          3.6776   10.7341  -15.4906 H           1 MOL       0.0974
     21 H5          4.8862    9.7974  -14.5977 H           1 MOL       0.0974
     22 H6          2.7089   13.4785   -7.9104 H           1 MOL       0.0169
     23 H7          1.4403   13.5432   -5.6224 H           1 MOL       0.1782
     24 H8          0.2574   12.3893   -5.3227 H           1 MOL       0.1782
     25 H9         -0.8216    9.5847   -7.7564 H           1 MOL       0.0589
     26 H10        -1.3452   11.0009   -6.8306 H           1 MOL       0.0589
     27 H11        -0.1175    9.9022   -6.1616 H           1 MOL       0.0589
@<TRIPOS>BOND
     1     1     2  ar
     2     1     6  ar
     3     2     3  ar
     4     2    10   1
     5     3     4  ar
     6     4     5  ar
     7     5     6  ar
     8     5     9   1
     9     6     7   1
    10     7     8   1
    11     8     9   1
    12    10    11   1
    13    10    14   2
    14    11    12   2
    15    12    13   1
    16    12    15   1
    17    13    14   1
    18    13    16   1
    19     1    17   1
    20     3    18   1
    21     4    19   1
    22     8    20   1
    23     8    21   1
    24    11    22   1
    25    15    23   1
    26    15    24   1
    27    16    25   1
    28    16    26   1
    29    16    27   1
@<TRIPOS>SUBSTRUCTURE
     1  MOL      1

