@<TRIPOS>MOLECULE
3ao4_ligand_011
    27    29
SMALL
GAST_HUCK
****
This file was generated by PARSER (from files_GN.cpp)

@<TRIPOS>ATOM
      1 C1         -1.3266    9.1520   -4.0690 C.ar        1 MOL      -0.0342
      2 C2         -0.8598    9.1139   -5.4069 C.ar        1 MOL      -0.0388
      3 C3         -1.1961   10.1984   -6.2660 C.ar        1 MOL      -0.0738
      4 C4         -1.9694   11.2824   -5.8031 C.ar        1 MOL      -0.0397
      5 C5         -2.4076   11.2836   -4.4695 C.ar        1 MOL       0.1245
      6 C6         -2.0889   10.2391   -3.6181 C.ar        1 MOL       0.1240
      7 O7         -2.5762   10.4298   -2.3783 O.3         1 MOL      -0.2908
      8 C8         -3.3419   11.6325   -2.5506 C.3         1 MOL       0.1873
      9 O9         -3.1174   12.2350   -3.8440 O.3         1 MOL      -0.2900
     10 C10        -0.0684    8.0161   -5.8461 C.2         1 MOL       0.0041
     11 C11         0.4888    7.7838   -7.0993 C.2         1 MOL      -0.0320
     12 C12         1.1662    6.5790   -7.0048 C.2         1 MOL       0.1510
     13 N13         1.0157    6.1289   -5.7433 N.pl3       1 MOL      -0.1966
     14 N14         0.2922    6.9741   -5.0720 N.2         1 MOL      -0.2405
     15 N15         1.8276    5.9920   -8.0145 N.pl3       1 MOL      -0.3098
     16 C16         1.5357    4.9222   -5.1907 C.3         1 MOL       0.0578
     17 H1         -1.1039    8.4040   -3.4074 H           1 MOL       0.0507
     18 H2         -0.8801   10.2162   -7.2367 H           1 MOL       0.0503
     19 H3         -2.2072   12.0568   -6.4261 H           1 MOL       0.0514
     20 H4         -3.0721   12.3423   -1.7679 H           1 MOL       0.0974
     21 H5         -4.4032   11.3898   -2.4436 H           1 MOL       0.0974
     22 H6          0.4014    8.3609   -7.9361 H           1 MOL       0.0169
     23 H7          1.8644    6.4172   -8.8862 H           1 MOL       0.1782
     24 H8          2.2133    5.1121   -7.8905 H           1 MOL       0.1782
     25 H9          1.2963    4.8381   -4.1290 H           1 MOL       0.0589
     26 H10         2.6216    4.8980   -5.3009 H           1 MOL       0.0589
     27 H11         1.1047    4.0629   -5.7056 H           1 MOL       0.0589
@<TRIPOS>BOND
     1     1     2  ar
     2     1     6  ar
     3     2     3  ar
     4     2    10   1
     5     3     4  ar
     6     4     5  ar
     7     5     6  ar
     8     5     9   1
     9     6     7   1
    10     7     8   1
    11     8     9   1
    12    10    11   1
    13    10    14   2
    14    11    12   2
    15    12    13   1
    16    12    15   1
    17    13    14   1
    18    13    16   1
    19     1    17   1
    20     3    18   1
    21     4    19   1
    22     8    20   1
    23     8    21   1
    24    11    22   1
    25    15    23   1
    26    15    24   1
    27    16    25   1
    28    16    26   1
    29    16    27   1
@<TRIPOS>SUBSTRUCTURE
     1  MOL      1

