@<TRIPOS>MOLECULE
3ao4_ligand_002
    27    29
SMALL
GAST_HUCK
****
This file was generated by PARSER (from files_GN.cpp)

@<TRIPOS>ATOM
      1 C1          1.7715   15.0249  -11.8430 C.ar        1 MOL      -0.0342
      2 C2          1.1983   13.7317  -11.7348 C.ar        1 MOL      -0.0388
      3 C3          2.0201   12.6741  -11.2514 C.ar        1 MOL      -0.0738
      4 C4          3.3615   12.9026  -10.8791 C.ar        1 MOL      -0.0397
      5 C5          3.8882   14.1983  -10.9928 C.ar        1 MOL       0.1245
      6 C6          3.1091   15.2373  -11.4729 C.ar        1 MOL       0.1240
      7 O7          3.7855   16.3997  -11.5079 O.3         1 MOL      -0.2908
      8 C8          5.1009   15.9865  -11.0912 C.3         1 MOL       0.1873
      9 O9          5.1265   14.6101  -10.6647 O.3         1 MOL      -0.2900
     10 C10        -0.1617   13.5138  -12.0996 C.2         1 MOL       0.0041
     11 C11        -1.1030   14.4313  -12.5670 C.2         1 MOL      -0.0320
     12 C12        -2.2762   13.7252  -12.7713 C.2         1 MOL       0.1510
     13 N13        -2.0294   12.4441  -12.4372 N.pl3       1 MOL      -0.1966
     14 N14        -0.7952   12.3260  -12.0464 N.2         1 MOL      -0.2405
     15 N15        -3.4294   14.2489  -13.2212 N.pl3       1 MOL      -0.3098
     16 C16        -2.9532   11.3579  -12.4883 C.3         1 MOL       0.0578
     17 H1          1.2303   15.8201  -12.1861 H           1 MOL       0.0507
     18 H2          1.6526   11.7250  -11.1558 H           1 MOL       0.0503
     19 H3          3.9415   12.1397  -10.5254 H           1 MOL       0.0514
     20 H4          5.4325   16.6256  -10.2699 H           1 MOL       0.0974
     21 H5          5.7954   16.1126  -11.9259 H           1 MOL       0.0974
     22 H6         -0.9744   15.4312  -12.7324 H           1 MOL       0.0169
     23 H7         -3.4846   15.1942  -13.4302 H           1 MOL       0.1782
     24 H8         -4.2086   13.6828  -13.3379 H           1 MOL       0.1782
     25 H9         -2.4766   10.4228  -12.1862 H           1 MOL       0.0589
     26 H10        -3.3318   11.2394  -13.5049 H           1 MOL       0.0589
     27 H11        -3.7914   11.5509  -11.8165 H           1 MOL       0.0589
@<TRIPOS>BOND
     1     1     2  ar
     2     1     6  ar
     3     2     3  ar
     4     2    10   1
     5     3     4  ar
     6     4     5  ar
     7     5     6  ar
     8     5     9   1
     9     6     7   1
    10     7     8   1
    11     8     9   1
    12    10    11   1
    13    10    14   2
    14    11    12   2
    15    12    13   1
    16    12    15   1
    17    13    14   1
    18    13    16   1
    19     1    17   1
    20     3    18   1
    21     4    19   1
    22     8    20   1
    23     8    21   1
    24    11    22   1
    25    15    23   1
    26    15    24   1
    27    16    25   1
    28    16    26   1
    29    16    27   1
@<TRIPOS>SUBSTRUCTURE
     1  MOL      1

