@<TRIPOS>MOLECULE
3b68_ligand_011
    49    50
SMALL
GAST_HUCK
****
This file was generated by PARSER (from files_GN.cpp)

@<TRIPOS>ATOM
      1 C24        28.5238   -1.1027   16.5346 C.3         1 B68       0.0310
      2 C23        28.6032   -1.2495   15.0949 C.2         1 B68       0.1976
      3 O23        29.0134   -2.3172   14.6636 O.2         1 B68      -0.3866
      4 N22        28.2505   -0.2301   14.3229 N.am        1 B68      -0.2404
      5 C19        28.2517   -0.0632   12.9655 C.ar        1 B68       0.0556
      6 C18        27.8814    1.2244   12.5197 C.ar        1 B68      -0.0490
      7 C17        27.8607    1.5403   11.1514 C.ar        1 B68      -0.0458
      8 C20        28.5906   -1.0357   11.9921 C.ar        1 B68      -0.0490
      9 C21        28.5869   -0.7159   10.6207 C.ar        1 B68      -0.0458
     10 C16        28.2504    0.5804   10.1886 C.ar        1 B68       0.0758
     11 O14        28.3194    0.8422    8.8450 O.3         1 B68      -0.3258
     12 C13        28.9979    2.0606    8.4678 C.3         1 B68       0.1074
     13 C11        29.5667    1.9871    7.0150 C.3         1 B68       0.2174
     14 O11        30.1747    3.2556    6.7283 O.3         1 B68      -0.3787
     15 C12        30.6830    0.8922    6.9693 C.3         1 B68      -0.0220
     16 C10        28.5104    1.8125    6.0059 C.2         1 B68       0.4188
     17 O10        28.5107    0.8350    5.2685 O.2         1 B68      -0.2202
     18 N9         27.5607    2.7398    5.9189 N.am        1 B68      -0.0739
     19 C6         26.4740    2.8554    5.0911 C.ar        1 B68       0.3494
     20 C5         26.3571    2.2748    3.8163 C.ar        1 B68       0.1646
     21 C1         25.4255    3.6605    5.5475 C.ar        1 B68       0.1428
     22 C2         24.2793    3.8582    4.7721 C.ar        1 B68       0.0951
     23 C3         24.1188    3.2557    3.4957 C.ar        1 B68       0.2051
     24 N8         22.9393    3.5153    2.8313 N.2         1 B68      -0.1292
     25 O1         22.6100    3.0180    1.6772 O.2         1 B68      -0.4447
     26 O2         22.0869    4.2553    3.2535 O.2         1 B68      -0.4447
     27 C4         25.1898    2.4243    3.0159 C.ar        1 B68       0.1925
     28 C7         25.1633    1.6988    1.7023 C.3         1 B68       0.4082
     29 F2         24.1003    0.8296    1.6637 F           1 B68      -0.2146
     30 F1         25.0986    2.5906    0.6647 F           1 B68      -0.2146
     31 F3         26.2634    0.9257    1.4083 F           1 B68      -0.2146
     32 H1         28.1661   -0.1099   16.8244 H           1 B68       0.0471
     33 H2         29.5099   -1.2465   16.9805 H           1 B68       0.0471
     34 H3         27.8410   -1.8501   16.9476 H           1 B68       0.0471
     35 H4         27.9691    0.5564   14.8159 H           1 B68       0.2220
     36 H5         27.6232    1.9489   13.1930 H           1 B68       0.0478
     37 H6         27.5871    2.4813   10.8677 H           1 B68       0.0507
     38 H7         28.8352   -1.9855   12.2543 H           1 B68       0.0478
     39 H8         28.8384   -1.4264    9.9325 H           1 B68       0.0507
     40 H9         29.8313    2.2798    9.1484 H           1 B68       0.0624
     41 H10        28.2917    2.8884    8.5461 H           1 B68       0.0624
     42 H11        30.5247    3.5963    7.5796 H           1 B68       0.2081
     43 H12        31.1999    0.9075    6.0043 H           1 B68       0.0246
     44 H13        30.2521   -0.1029    7.1131 H           1 B68       0.0246
     45 H14        31.4238    1.0636    7.7558 H           1 B68       0.0246
     46 H15        27.6235    3.4337    6.5887 H           1 B68       0.4378
     47 H16        27.1491    1.7422    3.4611 H           1 B68       0.1807
     48 H17        25.4722    4.0984    6.4684 H           1 B68       0.1438
     49 H18        23.5505    4.4543    5.1709 H           1 B68       0.1091
@<TRIPOS>BOND
     1     1     2   1
     2     2     3   2
     3     2     4  am
     4     4     5   1
     5     5     6  ar
     6     5     8  ar
     7     6     7  ar
     8     7    10  ar
     9     8     9  ar
    10     9    10  ar
    11    10    11   1
    12    11    12   1
    13    12    13   1
    14    13    14   1
    15    13    15   1
    16    13    16   1
    17    16    17   2
    18    16    18  am
    19    18    19   1
    20    19    20  ar
    21    19    21  ar
    22    20    27  ar
    23    21    22  ar
    24    22    23  ar
    25    23    24   1
    26    23    27  ar
    27    24    25   2
    28    24    26   2
    29    27    28   1
    30    28    29   1
    31    28    30   1
    32    28    31   1
    33     1    32   1
    34     1    33   1
    35     1    34   1
    36     4    35   1
    37     6    36   1
    38     7    37   1
    39     8    38   1
    40     9    39   1
    41    12    40   1
    42    12    41   1
    43    14    42   1
    44    15    43   1
    45    15    44   1
    46    15    45   1
    47    18    46   1
    48    20    47   1
    49    21    48   1
    50    22    49   1
@<TRIPOS>SUBSTRUCTURE
     1  B68      1

