@<TRIPOS>MOLECULE
3b68_ligand_022
    49    50
SMALL
GAST_HUCK
****
This file was generated by PARSER (from files_GN.cpp)

@<TRIPOS>ATOM
      1 C24        27.5542   -0.4995   14.4694 C.3         1 B68       0.0310
      2 C23        27.7416    0.4252   13.3749 C.2         1 B68       0.1976
      3 O23        26.9997    1.3975   13.3350 O.2         1 B68      -0.3866
      4 N22        28.7181    0.2027   12.5015 N.am        1 B68      -0.2404
      5 C19        29.1159    0.8991   11.3879 C.ar        1 B68       0.0556
      6 C18        28.3636    1.9351   10.7728 C.ar        1 B68      -0.0490
      7 C17        28.8421    2.5937    9.6268 C.ar        1 B68      -0.0458
      8 C20        30.3531    0.5465   10.8025 C.ar        1 B68      -0.0490
      9 C21        30.7983    1.1599    9.6173 C.ar        1 B68      -0.0458
     10 C16        30.0179    2.1579    8.9909 C.ar        1 B68       0.0758
     11 O14        30.3885    2.7048    7.7873 O.3         1 B68      -0.3258
     12 C13        30.0873    1.8987    6.6136 C.3         1 B68       0.1074
     13 C11        28.7084    2.2432    5.9335 C.3         1 B68       0.2174
     14 O11        27.7694    2.4919    6.9801 O.3         1 B68      -0.3787
     15 C12        28.8214    3.5707    5.1253 C.3         1 B68      -0.0220
     16 C10        28.1197    1.1895    5.0986 C.2         1 B68       0.4188
     17 O10        28.7771    0.2055    4.7741 O.2         1 B68      -0.2202
     18 N9         26.8544    1.3335    4.7084 N.am        1 B68      -0.0739
     19 C6         26.0044    0.4975    4.0521 C.ar        1 B68       0.3494
     20 C5         26.0813   -0.9081    4.0505 C.ar        1 B68       0.1646
     21 C1         24.9286    1.1087    3.3897 C.ar        1 B68       0.1428
     22 C2         24.0032    0.3391    2.6780 C.ar        1 B68       0.0951
     23 C3         24.0974   -1.0824    2.5981 C.ar        1 B68       0.2051
     24 N8         23.1583   -1.7331    1.8282 N.2         1 B68      -0.1292
     25 O1         23.1322   -3.0139    1.6078 O.2         1 B68      -0.4447
     26 O2         22.2616   -1.1639    1.2589 O.2         1 B68      -0.4447
     27 C4         25.1631   -1.7204    3.3296 C.ar        1 B68       0.1925
     28 C7         25.3733   -3.2093    3.3683 C.3         1 B68       0.4082
     29 F2         24.2705   -3.8721    3.8497 F           1 B68      -0.2146
     30 F1         25.6679   -3.6676    2.1106 F           1 B68      -0.2146
     31 F3         26.4054   -3.6511    4.1639 F           1 B68      -0.2146
     32 H1         28.1951   -1.3781   14.3685 H           1 B68       0.0471
     33 H2         26.5164   -0.8332   14.4955 H           1 B68       0.0471
     34 H3         27.7912   -0.0066   15.4125 H           1 B68       0.0471
     35 H4         29.2547   -0.5850   12.6944 H           1 B68       0.2220
     36 H5         27.4537    2.2150   11.1380 H           1 B68       0.0478
     37 H6         28.3022    3.3752    9.2308 H           1 B68       0.0507
     38 H7         30.9364   -0.1723   11.2375 H           1 B68       0.0478
     39 H8         31.6849    0.8786    9.2013 H           1 B68       0.0507
     40 H9         30.1616    0.8302    6.8416 H           1 B68       0.0624
     41 H10        30.8790    2.0955    5.8904 H           1 B68       0.0624
     42 H11        27.7229    1.6560    7.4907 H           1 B68       0.2081
     43 H12        27.8405    3.9203    4.7946 H           1 B68       0.0246
     44 H13        29.4544    3.4361    4.2477 H           1 B68       0.0246
     45 H14        29.2542    4.3485    5.7531 H           1 B68       0.0246
     46 H15        26.4684    2.1981    4.9198 H           1 B68       0.4378
     47 H16        26.8165   -1.3397    4.6065 H           1 B68       0.1807
     48 H17        24.8230    2.1286    3.4020 H           1 B68       0.1438
     49 H18        23.2586    0.8445    2.1922 H           1 B68       0.1091
@<TRIPOS>BOND
     1     1     2   1
     2     2     3   2
     3     2     4  am
     4     4     5   1
     5     5     6  ar
     6     5     8  ar
     7     6     7  ar
     8     7    10  ar
     9     8     9  ar
    10     9    10  ar
    11    10    11   1
    12    11    12   1
    13    12    13   1
    14    13    14   1
    15    13    15   1
    16    13    16   1
    17    16    17   2
    18    16    18  am
    19    18    19   1
    20    19    20  ar
    21    19    21  ar
    22    20    27  ar
    23    21    22  ar
    24    22    23  ar
    25    23    24   1
    26    23    27  ar
    27    24    25   2
    28    24    26   2
    29    27    28   1
    30    28    29   1
    31    28    30   1
    32    28    31   1
    33     1    32   1
    34     1    33   1
    35     1    34   1
    36     4    35   1
    37     6    36   1
    38     7    37   1
    39     8    38   1
    40     9    39   1
    41    12    40   1
    42    12    41   1
    43    14    42   1
    44    15    43   1
    45    15    44   1
    46    15    45   1
    47    18    46   1
    48    20    47   1
    49    21    48   1
    50    22    49   1
@<TRIPOS>SUBSTRUCTURE
     1  B68      1

