@<TRIPOS>MOLECULE
3b68_ligand_016
    49    50
SMALL
GAST_HUCK
****
This file was generated by PARSER (from files_GN.cpp)

@<TRIPOS>ATOM
      1 C24        27.8719    5.2769    2.4454 C.3         1 B68       0.0310
      2 C23        28.4957    4.1516    3.1063 C.2         1 B68       0.1976
      3 O23        28.6625    3.1401    2.4397 O.2         1 B68      -0.3866
      4 N22        28.8417    4.2479    4.3873 N.am        1 B68      -0.2404
      5 C19        29.4581    3.3636    5.2298 C.ar        1 B68       0.0556
      6 C18        29.4936    3.7215    6.5952 C.ar        1 B68      -0.0490
      7 C17        30.0597    2.8702    7.5623 C.ar        1 B68      -0.0458
      8 C20        30.0864    2.1466    4.8507 C.ar        1 B68      -0.0490
      9 C21        30.6689    1.2986    5.8134 C.ar        1 B68      -0.0458
     10 C16        30.6184    1.6348    7.1830 C.ar        1 B68       0.0758
     11 O14        31.1532    0.8203    8.1413 O.3         1 B68      -0.3258
     12 C13        30.5156   -0.4602    8.3330 C.3         1 B68       0.1074
     13 C11        29.1611   -0.4544    9.1087 C.3         1 B68       0.2174
     14 O11        28.2930    0.5536    8.5678 O.3         1 B68      -0.3787
     15 C12        28.4041   -1.8004    8.8429 C.3         1 B68      -0.0220
     16 C10        29.3729   -0.1565   10.5297 C.2         1 B68       0.4188
     17 O10        29.7548    0.9742   10.8043 O.2         1 B68      -0.2202
     18 N9         29.1210   -1.0647   11.4699 N.am        1 B68      -0.0739
     19 C6         29.1782   -1.0204   12.8309 C.ar        1 B68       0.3494
     20 C5         29.8155   -0.0363   13.6109 C.ar        1 B68       0.1646
     21 C1         28.5640   -2.0983   13.4988 C.ar        1 B68       0.1428
     22 C2         28.5814   -2.1742   14.8938 C.ar        1 B68       0.0951
     23 C3         29.1847   -1.1719   15.6997 C.ar        1 B68       0.2051
     24 N8         29.1119   -1.3469   17.0597 N.2         1 B68      -0.1292
     25 O1         29.6791   -0.5733   17.9414 O.2         1 B68      -0.4447
     26 O2         28.5375   -2.2667   17.5813 O.2         1 B68      -0.4447
     27 C4         29.8287   -0.0747   15.0305 C.ar        1 B68       0.1925
     28 C7         30.5172    1.0499   15.7381 C.3         1 B68       0.4082
     29 F2         29.6604    1.6443   16.6230 F           1 B68      -0.2146
     30 F1         31.6297    0.6036   16.4047 F           1 B68      -0.2146
     31 F3         30.9560    2.0944   14.9528 F           1 B68      -0.2146
     32 H1         27.7325    6.1241    3.1186 H           1 B68       0.0471
     33 H2         26.8935    4.9816    2.0562 H           1 B68       0.0471
     34 H3         28.4965    5.6040    1.6117 H           1 B68       0.0471
     35 H4         28.5937    5.0844    4.8048 H           1 B68       0.2220
     36 H5         29.0997    4.6118    6.9019 H           1 B68       0.0478
     37 H6         30.0523    3.1485    8.5491 H           1 B68       0.0507
     38 H7         30.1379    1.8575    3.8682 H           1 B68       0.0478
     39 H8         31.1122    0.4307    5.5133 H           1 B68       0.0507
     40 H9         31.2345   -1.0674    8.8880 H           1 B68       0.0624
     41 H10        30.3774   -0.9472    7.3627 H           1 B68       0.0624
     42 H11        27.5436    0.6423    9.2126 H           1 B68       0.2081
     43 H12        27.4592   -1.8203    9.3815 H           1 B68       0.0246
     44 H13        29.0108   -2.6569    9.1384 H           1 B68       0.0246
     45 H14        28.1748   -1.9032    7.7748 H           1 B68       0.0246
     46 H15        28.8000   -1.9127   11.1382 H           1 B68       0.4378
     47 H16        30.3000    0.7118   13.1239 H           1 B68       0.1807
     48 H17        28.1081   -2.8476   12.9692 H           1 B68       0.1438
     49 H18        28.1417   -3.0003   15.3131 H           1 B68       0.1091
@<TRIPOS>BOND
     1     1     2   1
     2     2     3   2
     3     2     4  am
     4     4     5   1
     5     5     6  ar
     6     5     8  ar
     7     6     7  ar
     8     7    10  ar
     9     8     9  ar
    10     9    10  ar
    11    10    11   1
    12    11    12   1
    13    12    13   1
    14    13    14   1
    15    13    15   1
    16    13    16   1
    17    16    17   2
    18    16    18  am
    19    18    19   1
    20    19    20  ar
    21    19    21  ar
    22    20    27  ar
    23    21    22  ar
    24    22    23  ar
    25    23    24   1
    26    23    27  ar
    27    24    25   2
    28    24    26   2
    29    27    28   1
    30    28    29   1
    31    28    30   1
    32    28    31   1
    33     1    32   1
    34     1    33   1
    35     1    34   1
    36     4    35   1
    37     6    36   1
    38     7    37   1
    39     8    38   1
    40     9    39   1
    41    12    40   1
    42    12    41   1
    43    14    42   1
    44    15    43   1
    45    15    44   1
    46    15    45   1
    47    18    46   1
    48    20    47   1
    49    21    48   1
    50    22    49   1
@<TRIPOS>SUBSTRUCTURE
     1  B68      1

