@<TRIPOS>MOLECULE
3b68_ligand_010
    49    50
SMALL
GAST_HUCK
****
This file was generated by PARSER (from files_GN.cpp)

@<TRIPOS>ATOM
      1 C24        25.0561    7.7427    2.8165 C.3         1 B68       0.0310
      2 C23        25.9203    6.6335    2.5018 C.2         1 B68       0.1976
      3 O23        26.1020    6.3731    1.3172 O.2         1 B68      -0.3866
      4 N22        26.5623    6.0011    3.4675 N.am        1 B68      -0.2404
      5 C19        27.4052    4.9334    3.3587 C.ar        1 B68       0.0556
      6 C18        27.2654    3.8792    2.4220 C.ar        1 B68      -0.0490
      7 C17        28.1780    2.8023    2.4157 C.ar        1 B68      -0.0458
      8 C20        28.4367    4.8562    4.3103 C.ar        1 B68      -0.0490
      9 C21        29.3564    3.7877    4.2970 C.ar        1 B68      -0.0458
     10 C16        29.2323    2.7466    3.3478 C.ar        1 B68       0.0758
     11 O14        30.0903    1.6708    3.2710 O.3         1 B68      -0.3258
     12 C13        30.7221    1.1401    4.4560 C.3         1 B68       0.1074
     13 C11        29.7750    0.4499    5.4992 C.3         1 B68       0.2174
     14 O11        29.3719   -0.8047    4.9228 O.3         1 B68      -0.3787
     15 C12        30.5463    0.1111    6.8150 C.3         1 B68      -0.0220
     16 C10        28.6168    1.2949    5.7890 C.2         1 B68       0.4188
     17 O10        28.7801    2.2535    6.5319 O.2         1 B68      -0.2202
     18 N9         27.4843    1.1144    5.1071 N.am        1 B68      -0.0739
     19 C6         26.3847    1.9093    4.9411 C.ar        1 B68       0.3494
     20 C5         25.3983    1.4222    4.0630 C.ar        1 B68       0.1646
     21 C1         26.2022    3.1975    5.4643 C.ar        1 B68       0.1428
     22 C2         25.1006    3.9812    5.0974 C.ar        1 B68       0.0951
     23 C3         24.1152    3.5265    4.1777 C.ar        1 B68       0.2051
     24 N8         23.1235    4.4047    3.8153 N.2         1 B68      -0.1292
     25 O1         22.2120    4.1791    2.9073 O.2         1 B68      -0.4447
     26 O2         23.0163    5.5108    4.2874 O.2         1 B68      -0.4447
     27 C4         24.2712    2.1883    3.6708 C.ar        1 B68       0.1925
     28 C7         23.2742    1.5234    2.7632 C.3         1 B68       0.4082
     29 F2         22.0416    1.5270    3.3718 F           1 B68      -0.2146
     30 F1         23.2350    2.1596    1.5481 F           1 B68      -0.2146
     31 F3         23.5009    0.1991    2.4600 F           1 B68      -0.2146
     32 H1         24.9832    7.9104    3.8972 H           1 B68       0.0471
     33 H2         24.0510    7.5482    2.4313 H           1 B68       0.0471
     34 H3         25.4426    8.6560    2.3560 H           1 B68       0.0471
     35 H4         26.5009    6.3982    4.3494 H           1 B68       0.2220
     36 H5         26.4822    3.8638    1.7652 H           1 B68       0.0478
     37 H6         28.0509    2.0399    1.7513 H           1 B68       0.0507
     38 H7         28.5282    5.5841    5.0202 H           1 B68       0.0478
     39 H8         30.1185    3.7892    4.9773 H           1 B68       0.0507
     40 H9         31.3417    1.9080    4.9397 H           1 B68       0.0624
     41 H10        31.4229    0.3809    4.0943 H           1 B68       0.0624
     42 H11        30.1331   -1.4139    5.0374 H           1 B68       0.2081
     43 H12        29.8761   -0.3829    7.5244 H           1 B68       0.0246
     44 H13        30.9463    1.0203    7.2774 H           1 B68       0.0246
     45 H14        31.3890   -0.5568    6.6012 H           1 B68       0.0246
     46 H15        27.4638    0.3108    4.5673 H           1 B68       0.4378
     47 H16        25.5367    0.4852    3.6823 H           1 B68       0.1807
     48 H17        26.8726    3.6167    6.0981 H           1 B68       0.1438
     49 H18        25.0351    4.9254    5.4916 H           1 B68       0.1091
@<TRIPOS>BOND
     1     1     2   1
     2     2     3   2
     3     2     4  am
     4     4     5   1
     5     5     6  ar
     6     5     8  ar
     7     6     7  ar
     8     7    10  ar
     9     8     9  ar
    10     9    10  ar
    11    10    11   1
    12    11    12   1
    13    12    13   1
    14    13    14   1
    15    13    15   1
    16    13    16   1
    17    16    17   2
    18    16    18  am
    19    18    19   1
    20    19    20  ar
    21    19    21  ar
    22    20    27  ar
    23    21    22  ar
    24    22    23  ar
    25    23    24   1
    26    23    27  ar
    27    24    25   2
    28    24    26   2
    29    27    28   1
    30    28    29   1
    31    28    30   1
    32    28    31   1
    33     1    32   1
    34     1    33   1
    35     1    34   1
    36     4    35   1
    37     6    36   1
    38     7    37   1
    39     8    38   1
    40     9    39   1
    41    12    40   1
    42    12    41   1
    43    14    42   1
    44    15    43   1
    45    15    44   1
    46    15    45   1
    47    18    46   1
    48    20    47   1
    49    21    48   1
    50    22    49   1
@<TRIPOS>SUBSTRUCTURE
     1  B68      1

