@<TRIPOS>MOLECULE
3b68_ligand_007
    49    50
SMALL
GAST_HUCK
****
This file was generated by PARSER (from files_GN.cpp)

@<TRIPOS>ATOM
      1 C24        28.4472   -1.6333   16.4704 C.3         1 B68       0.0310
      2 C23        29.1103   -1.2642   15.2417 C.2         1 B68       0.1976
      3 O23        30.0356   -1.9653   14.8598 O.2         1 B68      -0.3866
      4 N22        28.6634   -0.2270   14.5517 N.am        1 B68      -0.2404
      5 C19        29.0767    0.2887   13.3553 C.ar        1 B68       0.0556
      6 C18        30.3337    0.0801   12.7376 C.ar        1 B68      -0.0490
      7 C17        30.6108    0.6391   11.4765 C.ar        1 B68      -0.0458
      8 C20        28.1417    1.1197   12.7103 C.ar        1 B68      -0.0490
      9 C21        28.4363    1.7073   11.4646 C.ar        1 B68      -0.0458
     10 C16        29.6646    1.4449   10.8137 C.ar        1 B68       0.0758
     11 O14        30.0208    1.9579    9.5773 O.3         1 B68      -0.3258
     12 C13        28.9550    2.2127    8.6369 C.3         1 B68       0.1074
     13 C11        29.3617    2.2680    7.1268 C.3         1 B68       0.2174
     14 O11        30.0507    3.4916    6.8799 O.3         1 B68      -0.3787
     15 C12        30.3131    1.0727    6.8004 C.3         1 B68      -0.0220
     16 C10        28.1782    2.2866    6.2482 C.2         1 B68       0.4188
     17 O10        27.0867    2.5077    6.7517 O.2         1 B68      -0.2202
     18 N9         28.2783    2.1263    4.9298 N.am        1 B68      -0.0739
     19 C6         27.3143    2.0027    3.9567 C.ar        1 B68       0.3494
     20 C5         25.9142    2.1183    4.1162 C.ar        1 B68       0.1646
     21 C1         27.7928    1.6915    2.6756 C.ar        1 B68       0.1428
     22 C2         26.9078    1.4921    1.6080 C.ar        1 B68       0.0951
     23 C3         25.4963    1.5893    1.7563 C.ar        1 B68       0.2051
     24 N8         24.7267    1.3520    0.6397 N.2         1 B68      -0.1292
     25 O1         23.4282    1.2553    0.6353 O.2         1 B68      -0.4447
     26 O2         25.1920    1.1797   -0.4571 O.2         1 B68      -0.4447
     27 C4         24.9873    1.9135    3.0600 C.ar        1 B68       0.1925
     28 C7         23.5252    2.0509    3.3749 C.3         1 B68       0.4082
     29 F2         22.9529    3.0266    2.5956 F           1 B68      -0.2146
     30 F1         22.8960    0.8453    3.1891 F           1 B68      -0.2146
     31 F3         23.2003    2.4127    4.6634 F           1 B68      -0.2146
     32 H1         27.5740   -1.0076   16.6647 H           1 B68       0.0471
     33 H2         29.1342   -1.5278   17.3090 H           1 B68       0.0471
     34 H3         28.1203   -2.6719   16.4128 H           1 B68       0.0471
     35 H4         27.8783    0.2017   14.9286 H           1 B68       0.2220
     36 H5         31.0632   -0.4690   13.1955 H           1 B68       0.0478
     37 H6         31.5158    0.4605   11.0406 H           1 B68       0.0507
     38 H7         27.2327    1.3029   13.1452 H           1 B68       0.0478
     39 H8         27.7390    2.3133   11.0249 H           1 B68       0.0507
     40 H9         28.5051    3.1700    8.9126 H           1 B68       0.0624
     41 H10        28.1930    1.4325    8.7441 H           1 B68       0.0624
     42 H11        30.5293    3.7049    7.7061 H           1 B68       0.2081
     43 H12        30.6715    1.1060    5.7689 H           1 B68       0.0246
     44 H13        29.7944    0.1212    6.9531 H           1 B68       0.0246
     45 H14        31.1926    1.0935    7.4480 H           1 B68       0.0246
     46 H15        29.1859    2.0234    4.6021 H           1 B68       0.4378
     47 H16        25.5489    2.3555    5.0279 H           1 B68       0.1807
     48 H17        28.7967    1.5874    2.5059 H           1 B68       0.1438
     49 H18        27.3221    1.2417    0.7092 H           1 B68       0.1091
@<TRIPOS>BOND
     1     1     2   1
     2     2     3   2
     3     2     4  am
     4     4     5   1
     5     5     6  ar
     6     5     8  ar
     7     6     7  ar
     8     7    10  ar
     9     8     9  ar
    10     9    10  ar
    11    10    11   1
    12    11    12   1
    13    12    13   1
    14    13    14   1
    15    13    15   1
    16    13    16   1
    17    16    17   2
    18    16    18  am
    19    18    19   1
    20    19    20  ar
    21    19    21  ar
    22    20    27  ar
    23    21    22  ar
    24    22    23  ar
    25    23    24   1
    26    23    27  ar
    27    24    25   2
    28    24    26   2
    29    27    28   1
    30    28    29   1
    31    28    30   1
    32    28    31   1
    33     1    32   1
    34     1    33   1
    35     1    34   1
    36     4    35   1
    37     6    36   1
    38     7    37   1
    39     8    38   1
    40     9    39   1
    41    12    40   1
    42    12    41   1
    43    14    42   1
    44    15    43   1
    45    15    44   1
    46    15    45   1
    47    18    46   1
    48    20    47   1
    49    21    48   1
    50    22    49   1
@<TRIPOS>SUBSTRUCTURE
     1  B68      1

