@<TRIPOS>MOLECULE
3b68_ligand_009
    49    50
SMALL
GAST_HUCK
****
This file was generated by PARSER (from files_GN.cpp)

@<TRIPOS>ATOM
      1 C24        28.4387   -1.5128   16.7364 C.3         1 B68       0.0310
      2 C23        28.9215   -1.3881   15.3809 C.2         1 B68       0.1976
      3 O23        29.6766   -2.2524   14.9603 O.2         1 B68      -0.3866
      4 N22        28.4827   -0.3953   14.6236 N.am        1 B68      -0.2404
      5 C19        28.7479   -0.0858   13.3213 C.ar        1 B68       0.0556
      6 C18        29.9028   -0.4544   12.5912 C.ar        1 B68      -0.0490
      7 C17        30.0689   -0.0486   11.2486 C.ar        1 B68      -0.0458
      8 C20        27.7744    0.7109   12.6812 C.ar        1 B68      -0.0490
      9 C21        27.9245    1.0968   11.3400 C.ar        1 B68      -0.0458
     10 C16        29.0786    0.7294   10.6226 C.ar        1 B68       0.0758
     11 O14        29.1848    1.0731    9.3049 O.3         1 B68      -0.3258
     12 C13        29.4953    2.4607    9.0538 C.3         1 B68       0.1074
     13 C11        29.1407    2.8086    7.5775 C.3         1 B68       0.2174
     14 O11        27.7109    2.8350    7.5215 O.3         1 B68      -0.3787
     15 C12        29.6516    4.2247    7.1925 C.3         1 B68      -0.0220
     16 C10        29.6384    1.8411    6.5968 C.2         1 B68       0.4188
     17 O10        30.6078    1.1569    6.8882 O.2         1 B68      -0.2202
     18 N9         29.0529    1.7809    5.4041 N.am        1 B68      -0.0739
     19 C6         29.2026    0.9268    4.3500 C.ar        1 B68       0.3494
     20 C5         30.0315   -0.2137    4.3091 C.ar        1 B68       0.1646
     21 C1         28.3971    1.1964    3.2312 C.ar        1 B68       0.1428
     22 C2         28.4258    0.3580    2.1112 C.ar        1 B68       0.0951
     23 C3         29.2611   -0.7910    2.0488 C.ar        1 B68       0.2051
     24 N8         29.2064   -1.5361    0.8977 N.2         1 B68      -0.1292
     25 O1         29.8454   -2.6511    0.7038 O.2         1 B68      -0.4447
     26 O2         28.5675   -1.2163   -0.0718 O.2         1 B68      -0.4447
     27 C4         30.0930   -1.0813    3.1854 C.ar        1 B68       0.1925
     28 C7         31.0438   -2.2416    3.2553 C.3         1 B68       0.4082
     29 F2         30.3593   -3.4291    3.1889 F           1 B68      -0.2146
     30 F1         31.9726   -2.1501    2.2491 F           1 B68      -0.2146
     31 F3         31.7994   -2.3532    4.3986 F           1 B68      -0.2146
     32 H1         27.7044   -0.7407   16.9723 H           1 B68       0.0471
     33 H2         29.2678   -1.4202   17.4372 H           1 B68       0.0471
     34 H3         27.9699   -2.4870   16.8789 H           1 B68       0.0471
     35 H4         27.8405    0.1956   15.0471 H           1 B68       0.2220
     36 H5         30.6517   -0.9874   13.0308 H           1 B68       0.0478
     37 H6         30.9090   -0.3246   10.7322 H           1 B68       0.0507
     38 H7         26.9349    1.0027   13.1860 H           1 B68       0.0478
     39 H8         27.1977    1.6508   10.8822 H           1 B68       0.0507
     40 H9         30.5586    2.6369    9.2413 H           1 B68       0.0624
     41 H10        28.9169    3.1172    9.7119 H           1 B68       0.0624
     42 H11        27.4181    1.9421    7.7997 H           1 B68       0.2081
     43 H12        29.2880    4.5074    6.2028 H           1 B68       0.0246
     44 H13        30.7414    4.2586    7.1852 H           1 B68       0.0246
     45 H14        29.2948    4.9670    7.9053 H           1 B68       0.0246
     46 H15        28.3624    2.4461    5.2715 H           1 B68       0.4378
     47 H16        30.5949   -0.4229    5.1270 H           1 B68       0.1807
     48 H17        27.7680    2.0042    3.2253 H           1 B68       0.1438
     49 H18        27.8046    0.6033    1.3361 H           1 B68       0.1091
@<TRIPOS>BOND
     1     1     2   1
     2     2     3   2
     3     2     4  am
     4     4     5   1
     5     5     6  ar
     6     5     8  ar
     7     6     7  ar
     8     7    10  ar
     9     8     9  ar
    10     9    10  ar
    11    10    11   1
    12    11    12   1
    13    12    13   1
    14    13    14   1
    15    13    15   1
    16    13    16   1
    17    16    17   2
    18    16    18  am
    19    18    19   1
    20    19    20  ar
    21    19    21  ar
    22    20    27  ar
    23    21    22  ar
    24    22    23  ar
    25    23    24   1
    26    23    27  ar
    27    24    25   2
    28    24    26   2
    29    27    28   1
    30    28    29   1
    31    28    30   1
    32    28    31   1
    33     1    32   1
    34     1    33   1
    35     1    34   1
    36     4    35   1
    37     6    36   1
    38     7    37   1
    39     8    38   1
    40     9    39   1
    41    12    40   1
    42    12    41   1
    43    14    42   1
    44    15    43   1
    45    15    44   1
    46    15    45   1
    47    18    46   1
    48    20    47   1
    49    21    48   1
    50    22    49   1
@<TRIPOS>SUBSTRUCTURE
     1  B68      1

