@<TRIPOS>MOLECULE
3b68_ligand_008
    49    50
SMALL
GAST_HUCK
****
This file was generated by PARSER (from files_GN.cpp)

@<TRIPOS>ATOM
      1 C24        31.7682   -3.1899    3.8260 C.3         1 B68       0.0310
      2 C23        30.5299   -2.4727    3.6654 C.2         1 B68       0.1976
      3 O23        29.5176   -3.0482    4.0360 O.2         1 B68      -0.3866
      4 N22        30.5445   -1.2348    3.1830 N.am        1 B68      -0.2404
      5 C19        29.5108   -0.3706    2.9371 C.ar        1 B68       0.0556
      6 C18        28.1404   -0.7265    2.9146 C.ar        1 B68      -0.0490
      7 C17        27.1455    0.2458    2.7320 C.ar        1 B68      -0.0458
      8 C20        29.8535    0.9765    2.6805 C.ar        1 B68      -0.0490
      9 C21        28.8523    1.9484    2.4796 C.ar        1 B68      -0.0458
     10 C16        27.4920    1.6027    2.5644 C.ar        1 B68       0.0758
     11 O14        26.5439    2.5863    2.4511 O.3         1 B68      -0.3258
     12 C13        25.5803    2.7341    3.5250 C.3         1 B68       0.1074
     13 C11        26.0263    3.5817    4.7636 C.3         1 B68       0.2174
     14 O11        26.5157    4.8376    4.2827 O.3         1 B68      -0.3787
     15 C12        24.7387    3.9354    5.5771 C.3         1 B68      -0.0220
     16 C10        27.0915    2.9577    5.5769 C.2         1 B68       0.4188
     17 O10        28.1971    2.8267    5.0590 O.2         1 B68      -0.2202
     18 N9         26.9601    2.6846    6.8727 N.am        1 B68      -0.0739
     19 C6         27.8557    2.2105    7.8077 C.ar        1 B68       0.3494
     20 C5         29.0006    1.4249    7.5668 C.ar        1 B68       0.1646
     21 C1         27.5390    2.5064    9.1457 C.ar        1 B68       0.1428
     22 C2         28.3327    2.0376   10.1965 C.ar        1 B68       0.0951
     23 C3         29.4920    1.2457    9.9782 C.ar        1 B68       0.2051
     24 N8         30.1867    0.8318   11.0968 N.2         1 B68      -0.1292
     25 O1         31.2822    0.1306   11.0892 O.2         1 B68      -0.4447
     26 O2         29.8342    1.0823   12.2176 O.2         1 B68      -0.4447
     27 C4         29.8359    0.9375    8.6168 C.ar        1 B68       0.1925
     28 C7         31.0317    0.1110    8.2397 C.3         1 B68       0.4082
     29 F2         32.1787    0.7315    8.6685 F           1 B68      -0.2146
     30 F1         30.9381   -1.1469    8.7843 F           1 B68      -0.2146
     31 F3         31.2291   -0.1037    6.8941 F           1 B68      -0.2146
     32 H1         32.5988   -2.6582    3.3588 H           1 B68       0.0471
     33 H2         31.6817   -4.1707    3.3614 H           1 B68       0.0471
     34 H3         31.9821   -3.3264    4.8863 H           1 B68       0.0471
     35 H4         31.4310   -0.8661    3.0289 H           1 B68       0.2220
     36 H5         27.8365   -1.6907    3.0357 H           1 B68       0.0478
     37 H6         26.1682   -0.0372    2.7599 H           1 B68       0.0507
     38 H7         30.8325    1.2690    2.6750 H           1 B68       0.0478
     39 H8         29.1224    2.9253    2.3329 H           1 B68       0.0507
     40 H9         25.1863    1.7727    3.8634 H           1 B68       0.0624
     41 H10        24.7405    3.2429    3.0384 H           1 B68       0.0624
     42 H11        27.2241    4.6268    3.6331 H           1 B68       0.2081
     43 H12        24.9783    4.5569    6.4364 H           1 B68       0.0246
     44 H13        24.2382    3.0314    5.9271 H           1 B68       0.0246
     45 H14        24.0258    4.4969    4.9622 H           1 B68       0.0246
     46 H15        26.1052    2.9361    7.2579 H           1 B68       0.4378
     47 H16        29.2100    1.1736    6.6016 H           1 B68       0.1807
     48 H17        26.7159    3.0723    9.3654 H           1 B68       0.1438
     49 H18        28.0367    2.2919   11.1430 H           1 B68       0.1091
@<TRIPOS>BOND
     1     1     2   1
     2     2     3   2
     3     2     4  am
     4     4     5   1
     5     5     6  ar
     6     5     8  ar
     7     6     7  ar
     8     7    10  ar
     9     8     9  ar
    10     9    10  ar
    11    10    11   1
    12    11    12   1
    13    12    13   1
    14    13    14   1
    15    13    15   1
    16    13    16   1
    17    16    17   2
    18    16    18  am
    19    18    19   1
    20    19    20  ar
    21    19    21  ar
    22    20    27  ar
    23    21    22  ar
    24    22    23  ar
    25    23    24   1
    26    23    27  ar
    27    24    25   2
    28    24    26   2
    29    27    28   1
    30    28    29   1
    31    28    30   1
    32    28    31   1
    33     1    32   1
    34     1    33   1
    35     1    34   1
    36     4    35   1
    37     6    36   1
    38     7    37   1
    39     8    38   1
    40     9    39   1
    41    12    40   1
    42    12    41   1
    43    14    42   1
    44    15    43   1
    45    15    44   1
    46    15    45   1
    47    18    46   1
    48    20    47   1
    49    21    48   1
    50    22    49   1
@<TRIPOS>SUBSTRUCTURE
     1  B68      1

