@<TRIPOS>MOLECULE
3b68_ligand_020
    49    50
SMALL
GAST_HUCK
****
This file was generated by PARSER (from files_GN.cpp)

@<TRIPOS>ATOM
      1 C24        30.3496   -0.1546   14.8388 C.3         1 B68       0.0310
      2 C23        30.5180    0.0077   13.4140 C.2         1 B68       0.1976
      3 O23        31.4351   -0.6151   12.8921 O.2         1 B68      -0.3866
      4 N22        29.6714    0.7574   12.7092 N.am        1 B68      -0.2404
      5 C19        29.6606    1.0459   11.3629 C.ar        1 B68       0.0556
      6 C18        28.4283    1.4320   10.7836 C.ar        1 B68      -0.0490
      7 C17        28.3196    1.6785    9.4054 C.ar        1 B68      -0.0458
      8 C20        30.8112    1.0405   10.5430 C.ar        1 B68      -0.0490
      9 C21        30.7012    1.3531    9.1471 C.ar        1 B68      -0.0458
     10 C16        29.4490    1.5739    8.5602 C.ar        1 B68       0.0758
     11 O14        29.2344    1.7214    7.1965 O.3         1 B68      -0.3258
     12 C13        30.0547    0.9553    6.2940 C.3         1 B68       0.1074
     13 C11        29.3559    0.6259    4.9197 C.3         1 B68       0.2174
     14 O11        30.2487   -0.2520    4.2216 O.3         1 B68      -0.3787
     15 C12        28.0689   -0.2303    5.1235 C.3         1 B68      -0.0220
     16 C10        29.0848    1.8347    4.1573 C.2         1 B68       0.4188
     17 O10        29.8493    2.1011    3.2203 O.2         1 B68      -0.2202
     18 N9         28.0666    2.6317    4.4579 N.am        1 B68      -0.0739
     19 C6         27.5357    3.7406    3.8472 C.ar        1 B68       0.3494
     20 C5         27.9734    4.3283    2.6374 C.ar        1 B68       0.1646
     21 C1         26.4267    4.3274    4.4793 C.ar        1 B68       0.1428
     22 C2         25.8108    5.4699    3.9481 C.ar        1 B68       0.0951
     23 C3         26.2552    6.0847    2.7454 C.ar        1 B68       0.2051
     24 N8         25.5773    7.2031    2.3222 N.2         1 B68      -0.1292
     25 O1         25.8336    7.8541    1.2268 O.2         1 B68      -0.4447
     26 O2         24.6632    7.6961    2.9373 O.2         1 B68      -0.4447
     27 C4         27.3721    5.4813    2.0704 C.ar        1 B68       0.1925
     28 C7         27.9689    6.0100    0.7948 C.3         1 B68       0.4082
     29 F2         27.0564    5.9970   -0.2298 F           1 B68      -0.2146
     30 F1         28.4411    7.2714    1.0000 F           1 B68      -0.2146
     31 F3         29.0641    5.3465    0.2941 F           1 B68      -0.2146
     32 H1         29.4977    0.4069   15.2188 H           1 B68       0.0471
     33 H2         31.2418    0.1962   15.3558 H           1 B68       0.0471
     34 H3         30.1974   -1.2059   15.0766 H           1 B68       0.0471
     35 H4         28.9185    1.1057   13.2238 H           1 B68       0.2220
     36 H5         27.5880    1.5039   11.3681 H           1 B68       0.0478
     37 H6         27.4140    1.9311    9.0097 H           1 B68       0.0507
     38 H7         31.7325    0.8756   10.9171 H           1 B68       0.0478
     39 H8         31.5534    1.3680    8.6051 H           1 B68       0.0507
     40 H9         30.3617    0.0161    6.7313 H           1 B68       0.0624
     41 H10        30.9468    1.5373    6.0951 H           1 B68       0.0624
     42 H11        29.8958   -0.3216    3.3005 H           1 B68       0.2081
     43 H12        27.6537   -0.5441    4.1599 H           1 B68       0.0246
     44 H13        27.3025    0.3260    5.6585 H           1 B68       0.0246
     45 H14        28.2931   -1.1289    5.7023 H           1 B68       0.0246
     46 H15        27.5784    2.3555    5.2515 H           1 B68       0.4378
     47 H16        28.7462    3.8887    2.1509 H           1 B68       0.1807
     48 H17        26.0465    3.9185    5.3333 H           1 B68       0.1438
     49 H18        25.0132    5.8462    4.4640 H           1 B68       0.1091
@<TRIPOS>BOND
     1     1     2   1
     2     2     3   2
     3     2     4  am
     4     4     5   1
     5     5     6  ar
     6     5     8  ar
     7     6     7  ar
     8     7    10  ar
     9     8     9  ar
    10     9    10  ar
    11    10    11   1
    12    11    12   1
    13    12    13   1
    14    13    14   1
    15    13    15   1
    16    13    16   1
    17    16    17   2
    18    16    18  am
    19    18    19   1
    20    19    20  ar
    21    19    21  ar
    22    20    27  ar
    23    21    22  ar
    24    22    23  ar
    25    23    24   1
    26    23    27  ar
    27    24    25   2
    28    24    26   2
    29    27    28   1
    30    28    29   1
    31    28    30   1
    32    28    31   1
    33     1    32   1
    34     1    33   1
    35     1    34   1
    36     4    35   1
    37     6    36   1
    38     7    37   1
    39     8    38   1
    40     9    39   1
    41    12    40   1
    42    12    41   1
    43    14    42   1
    44    15    43   1
    45    15    44   1
    46    15    45   1
    47    18    46   1
    48    20    47   1
    49    21    48   1
    50    22    49   1
@<TRIPOS>SUBSTRUCTURE
     1  B68      1

