@<TRIPOS>MOLECULE
3b68_ligand_018
    49    50
SMALL
GAST_HUCK
****
This file was generated by PARSER (from files_GN.cpp)

@<TRIPOS>ATOM
      1 C24        30.7712   -2.6672    3.3349 C.3         1 B68       0.0310
      2 C23        29.9077   -1.5579    3.6749 C.2         1 B68       0.1976
      3 O23        28.7219   -1.8097    3.8321 O.2         1 B68      -0.3866
      4 N22        30.4341   -0.3485    3.8370 N.am        1 B68      -0.2404
      5 C19        29.8591    0.8575    4.1401 C.ar        1 B68       0.0556
      6 C18        28.4697    1.1253    4.1730 C.ar        1 B68      -0.0490
      7 C17        27.9945    2.3930    4.5458 C.ar        1 B68      -0.0458
      8 C20        30.7455    1.9115    4.4619 C.ar        1 B68      -0.0490
      9 C21        30.2663    3.1944    4.7837 C.ar        1 B68      -0.0458
     10 C16        28.8846    3.4518    4.8010 C.ar        1 B68       0.0758
     11 O14        28.4381    4.6742    5.2195 O.3         1 B68      -0.3258
     12 C13        28.0494    5.6396    4.2120 C.3         1 B68       0.1074
     13 C11        26.5119    5.6668    3.8817 C.3         1 B68       0.2174
     14 O11        25.8279    5.4258    5.1213 O.3         1 B68      -0.3787
     15 C12        26.0358    7.0778    3.4259 C.3         1 B68      -0.0220
     16 C10        26.1630    4.6879    2.8449 C.2         1 B68       0.4188
     17 O10        26.6691    4.8188    1.7422 O.2         1 B68      -0.2202
     18 N9         25.3016    3.7077    3.1046 N.am        1 B68      -0.0739
     19 C6         24.8465    2.6519    2.3561 C.ar        1 B68       0.3494
     20 C5         25.2423    2.2986    1.0464 C.ar        1 B68       0.1646
     21 C1         23.8608    1.8582    2.9665 C.ar        1 B68       0.1428
     22 C2         23.2789    0.7862    2.2841 C.ar        1 B68       0.0951
     23 C3         23.6113    0.4671    0.9401 C.ar        1 B68       0.2051
     24 N8         22.9668   -0.6032    0.3724 N.2         1 B68      -0.1292
     25 O1         23.2613   -1.0995   -0.7922 O.2         1 B68      -0.4447
     26 O2         22.1133   -1.2417    0.9378 O.2         1 B68      -0.4447
     27 C4         24.6081    1.2747    0.2929 C.ar        1 B68       0.1925
     28 C7         24.9649    1.1582   -1.1652 C.3         1 B68       0.4082
     29 F2         25.6364   -0.0082   -1.4214 F           1 B68      -0.2146
     30 F1         23.8448    1.2272   -1.9556 F           1 B68      -0.2146
     31 F3         25.7671    2.1593   -1.6642 F           1 B68      -0.2146
     32 H1         31.8096   -2.3538    3.2026 H           1 B68       0.0471
     33 H2         30.4295   -3.1233    2.4044 H           1 B68       0.0471
     34 H3         30.7345   -3.4130    4.1303 H           1 B68       0.0471
     35 H4         31.3997   -0.3173    3.7442 H           1 B68       0.2220
     36 H5         27.7843    0.4061    3.9560 H           1 B68       0.0478
     37 H6         26.9930    2.5272    4.6645 H           1 B68       0.0507
     38 H7         31.7558    1.7468    4.4906 H           1 B68       0.0478
     39 H8         30.9310    3.9302    5.0293 H           1 B68       0.0507
     40 H9         28.6723    5.5585    3.3139 H           1 B68       0.0624
     41 H10        28.3134    6.6045    4.6516 H           1 B68       0.0624
     42 H11        24.8665    5.5691    4.9438 H           1 B68       0.2081
     43 H12        24.9652    7.0713    3.2087 H           1 B68       0.0246
     44 H13        26.5730    7.4010    2.5330 H           1 B68       0.0246
     45 H14        26.2093    7.8076    4.2154 H           1 B68       0.0246
     46 H15        24.9437    3.7286    4.0024 H           1 B68       0.4378
     47 H16        25.9904    2.8320    0.6178 H           1 B68       0.1807
     48 H17        23.5528    2.0617    3.9237 H           1 B68       0.1438
     49 H18        22.5769    0.2474    2.7922 H           1 B68       0.1091
@<TRIPOS>BOND
     1     1     2   1
     2     2     3   2
     3     2     4  am
     4     4     5   1
     5     5     6  ar
     6     5     8  ar
     7     6     7  ar
     8     7    10  ar
     9     8     9  ar
    10     9    10  ar
    11    10    11   1
    12    11    12   1
    13    12    13   1
    14    13    14   1
    15    13    15   1
    16    13    16   1
    17    16    17   2
    18    16    18  am
    19    18    19   1
    20    19    20  ar
    21    19    21  ar
    22    20    27  ar
    23    21    22  ar
    24    22    23  ar
    25    23    24   1
    26    23    27  ar
    27    24    25   2
    28    24    26   2
    29    27    28   1
    30    28    29   1
    31    28    30   1
    32    28    31   1
    33     1    32   1
    34     1    33   1
    35     1    34   1
    36     4    35   1
    37     6    36   1
    38     7    37   1
    39     8    38   1
    40     9    39   1
    41    12    40   1
    42    12    41   1
    43    14    42   1
    44    15    43   1
    45    15    44   1
    46    15    45   1
    47    18    46   1
    48    20    47   1
    49    21    48   1
    50    22    49   1
@<TRIPOS>SUBSTRUCTURE
     1  B68      1

