@<TRIPOS>MOLECULE
3b68_ligand_004
    49    50
SMALL
GAST_HUCK
****
This file was generated by PARSER (from files_GN.cpp)

@<TRIPOS>ATOM
      1 C24        28.4473   -1.0378   16.6773 C.3         1 B68       0.0310
      2 C23        28.5683   -1.2533   15.2566 C.2         1 B68       0.1976
      3 O23        29.0224   -2.3293   14.8957 O.2         1 B68      -0.3866
      4 N22        28.2258   -0.2810   14.4190 N.am        1 B68      -0.2404
      5 C19        28.3208   -0.1915   13.0561 C.ar        1 B68       0.0556
      6 C18        28.0941    1.0907   12.5035 C.ar        1 B68      -0.0490
      7 C17        28.2340    1.3169   11.1256 C.ar        1 B68      -0.0458
      8 C20        28.6165   -1.2538   12.1723 C.ar        1 B68      -0.0490
      9 C21        28.7441   -1.0328   10.7905 C.ar        1 B68      -0.0458
     10 C16        28.5984    0.2681   10.2557 C.ar        1 B68       0.0758
     11 O14        28.7944    0.6075    8.9394 O.3         1 B68      -0.3258
     12 C13        29.7146   -0.1483    8.1251 C.3         1 B68       0.1074
     13 C11        30.3263    0.7560    7.0149 C.3         1 B68       0.2174
     14 O11        31.2231    1.6524    7.6842 O.3         1 B68      -0.3787
     15 C12        31.1695   -0.0864    6.0141 C.3         1 B68      -0.0220
     16 C10        29.3044    1.5152    6.2879 C.2         1 B68       0.4188
     17 O10        29.4282    2.7304    6.1942 O.2         1 B68      -0.2202
     18 N9         28.2927    0.8672    5.7226 N.am        1 B68      -0.0739
     19 C6         27.1914    1.3129    5.0344 C.ar        1 B68       0.3494
     20 C5         26.7521    2.6481    4.9113 C.ar        1 B68       0.1646
     21 C1         26.4143    0.3124    4.4319 C.ar        1 B68       0.1428
     22 C2         25.2636    0.6416    3.7082 C.ar        1 B68       0.0951
     23 C3         24.8199    1.9816    3.5463 C.ar        1 B68       0.2051
     24 N8         23.6832    2.1804    2.7948 N.2         1 B68      -0.1292
     25 O1         23.0867    3.3240    2.6184 O.2         1 B68      -0.4447
     26 O2         23.1198    1.2889    2.2170 O.2         1 B68      -0.4447
     27 C4         25.5898    3.0176    4.1791 C.ar        1 B68       0.1925
     28 C7         25.2480    4.4781    4.0917 C.3         1 B68       0.4082
     29 F2         25.2487    4.8920    2.7813 F           1 B68      -0.2146
     30 F1         24.0293    4.7228    4.6782 F           1 B68      -0.2146
     31 F3         26.1123    5.3458    4.7191 F           1 B68      -0.2146
     32 H1         28.1240   -0.0233   16.9023 H           1 B68       0.0471
     33 H2         29.4094   -1.1972   17.1634 H           1 B68       0.0471
     34 H3         27.7253   -1.7371   17.0983 H           1 B68       0.0471
     35 H4         27.9082    0.5280   14.8498 H           1 B68       0.2220
     36 H5         27.8467    1.8778   13.1079 H           1 B68       0.0478
     37 H6         28.0889    2.2614   10.7561 H           1 B68       0.0507
     38 H7         28.7300   -2.2060   12.5135 H           1 B68       0.0478
     39 H8         28.9597   -1.8238   10.1826 H           1 B68       0.0507
     40 H9         29.1714   -0.9896    7.6877 H           1 B68       0.0624
     41 H10        30.5396   -0.5562    8.7199 H           1 B68       0.0624
     42 H11        31.8902    1.0924    8.1358 H           1 B68       0.2081
     43 H12        31.6210    0.5608    5.2591 H           1 B68       0.0246
     44 H13        30.5485   -0.8285    5.5047 H           1 B68       0.0246
     45 H14        31.9722   -0.6122    6.5364 H           1 B68       0.0246
     46 H15        28.3391   -0.1009    5.8073 H           1 B68       0.4378
     47 H16        27.2869    3.3724    5.3801 H           1 B68       0.1807
     48 H17        26.6814   -0.6734    4.5151 H           1 B68       0.1438
     49 H18        24.7451   -0.1338    3.2968 H           1 B68       0.1091
@<TRIPOS>BOND
     1     1     2   1
     2     2     3   2
     3     2     4  am
     4     4     5   1
     5     5     6  ar
     6     5     8  ar
     7     6     7  ar
     8     7    10  ar
     9     8     9  ar
    10     9    10  ar
    11    10    11   1
    12    11    12   1
    13    12    13   1
    14    13    14   1
    15    13    15   1
    16    13    16   1
    17    16    17   2
    18    16    18  am
    19    18    19   1
    20    19    20  ar
    21    19    21  ar
    22    20    27  ar
    23    21    22  ar
    24    22    23  ar
    25    23    24   1
    26    23    27  ar
    27    24    25   2
    28    24    26   2
    29    27    28   1
    30    28    29   1
    31    28    30   1
    32    28    31   1
    33     1    32   1
    34     1    33   1
    35     1    34   1
    36     4    35   1
    37     6    36   1
    38     7    37   1
    39     8    38   1
    40     9    39   1
    41    12    40   1
    42    12    41   1
    43    14    42   1
    44    15    43   1
    45    15    44   1
    46    15    45   1
    47    18    46   1
    48    20    47   1
    49    21    48   1
    50    22    49   1
@<TRIPOS>SUBSTRUCTURE
     1  B68      1

