@<TRIPOS>MOLECULE
3b68_ligand_023
    49    50
SMALL
GAST_HUCK
****
This file was generated by PARSER (from files_GN.cpp)

@<TRIPOS>ATOM
      1 C24        28.5756   -1.0206   16.4095 C.3         1 B68       0.0310
      2 C23        28.6424   -0.4182   15.0978 C.2         1 B68       0.1976
      3 O23        27.7523    0.3722   14.8150 O.2         1 B68      -0.3866
      4 N22        29.6612   -0.6827   14.2854 N.am        1 B68      -0.2404
      5 C19        29.9032   -0.1999   13.0216 C.ar        1 B68       0.0556
      6 C18        28.8877    0.2356   12.1354 C.ar        1 B68      -0.0490
      7 C17        29.2092    0.7899   10.8817 C.ar        1 B68      -0.0458
      8 C20        31.2413   -0.1508   12.5795 C.ar        1 B68      -0.0490
      9 C21        31.5678    0.3976   11.3200 C.ar        1 B68      -0.0458
     10 C16        30.5521    0.8894   10.4707 C.ar        1 B68       0.0758
     11 O14        30.9483    1.5333    9.3167 O.3         1 B68      -0.3258
     12 C13        30.2297    1.3082    8.0844 C.3         1 B68       0.1074
     13 C11        29.3369    2.5384    7.6912 C.3         1 B68       0.2174
     14 O11        28.5083    2.8330    8.8213 O.3         1 B68      -0.3787
     15 C12        30.1759    3.8245    7.4396 C.3         1 B68      -0.0220
     16 C10        28.5479    2.2463    6.4966 C.2         1 B68       0.4188
     17 O10        27.3210    2.3619    6.5398 O.2         1 B68      -0.2202
     18 N9         29.1607    1.8478    5.3832 N.am        1 B68      -0.0739
     19 C6         28.6636    1.4971    4.1634 C.ar        1 B68       0.3494
     20 C5         27.4523    1.9640    3.6123 C.ar        1 B68       0.1646
     21 C1         29.4590    0.6475    3.3854 C.ar        1 B68       0.1428
     22 C2         29.0380    0.2498    2.1095 C.ar        1 B68       0.0951
     23 C3         27.8124    0.6919    1.5400 C.ar        1 B68       0.2051
     24 N8         27.5139    0.2499    0.2730 N.2         1 B68      -0.1292
     25 O1         26.4421    0.5641   -0.3959 O.2         1 B68      -0.4447
     26 O2         28.2386   -0.4766   -0.3582 O.2         1 B68      -0.4447
     27 C4         26.9950    1.5768    2.3259 C.ar        1 B68       0.1925
     28 C7         25.6812    2.1413    1.8615 C.3         1 B68       0.4082
     29 F2         25.8645    2.8959    0.7300 F           1 B68      -0.2146
     30 F1         24.7754    1.1381    1.6231 F           1 B68      -0.2146
     31 F3         25.0302    2.9798    2.7395 F           1 B68      -0.2146
     32 H1         29.3627   -1.7585   16.5529 H           1 B68       0.0471
     33 H2         27.6161   -1.5236   16.5347 H           1 B68       0.0471
     34 H3         28.6719   -0.2473   17.1721 H           1 B68       0.0471
     35 H4         30.3664   -1.2351   14.6633 H           1 B68       0.2220
     36 H5         27.9003    0.1535   12.3863 H           1 B68       0.0478
     37 H6         28.4595    1.1301   10.2823 H           1 B68       0.0507
     38 H7         32.0008   -0.4797   13.1853 H           1 B68       0.0478
     39 H8         32.5484    0.4584   11.0366 H           1 B68       0.0507
     40 H9         29.6180    0.4003    8.1237 H           1 B68       0.0624
     41 H10        30.9860    1.1412    7.3140 H           1 B68       0.0624
     42 H11        27.6714    2.3396    8.6573 H           1 B68       0.2081
     43 H12        29.5158    4.6877    7.3251 H           1 B68       0.0246
     44 H13        30.7899    3.7417    6.5385 H           1 B68       0.0246
     45 H14        30.8395    4.0210    8.2820 H           1 B68       0.0246
     46 H15        30.1226    1.7395    5.4684 H           1 B68       0.4378
     47 H16        26.9130    2.6331    4.1594 H           1 B68       0.1807
     48 H17        30.3531    0.3008    3.7437 H           1 B68       0.1438
     49 H18        29.6622   -0.3775    1.5950 H           1 B68       0.1091
@<TRIPOS>BOND
     1     1     2   1
     2     2     3   2
     3     2     4  am
     4     4     5   1
     5     5     6  ar
     6     5     8  ar
     7     6     7  ar
     8     7    10  ar
     9     8     9  ar
    10     9    10  ar
    11    10    11   1
    12    11    12   1
    13    12    13   1
    14    13    14   1
    15    13    15   1
    16    13    16   1
    17    16    17   2
    18    16    18  am
    19    18    19   1
    20    19    20  ar
    21    19    21  ar
    22    20    27  ar
    23    21    22  ar
    24    22    23  ar
    25    23    24   1
    26    23    27  ar
    27    24    25   2
    28    24    26   2
    29    27    28   1
    30    28    29   1
    31    28    30   1
    32    28    31   1
    33     1    32   1
    34     1    33   1
    35     1    34   1
    36     4    35   1
    37     6    36   1
    38     7    37   1
    39     8    38   1
    40     9    39   1
    41    12    40   1
    42    12    41   1
    43    14    42   1
    44    15    43   1
    45    15    44   1
    46    15    45   1
    47    18    46   1
    48    20    47   1
    49    21    48   1
    50    22    49   1
@<TRIPOS>SUBSTRUCTURE
     1  B68      1

