@<TRIPOS>MOLECULE
3b68_ligand_005
    49    50
SMALL
GAST_HUCK
****
This file was generated by PARSER (from files_GN.cpp)

@<TRIPOS>ATOM
      1 C24        22.1222    4.4687    4.1550 C.3         1 B68       0.0310
      2 C23        23.2204    3.7260    3.5842 C.2         1 B68       0.1976
      3 O23        22.9142    2.7955    2.8515 O.2         1 B68      -0.3866
      4 N22        24.4729    4.0611    3.8723 N.am        1 B68      -0.2404
      5 C19        25.6623    3.5573    3.4059 C.ar        1 B68       0.0556
      6 C18        26.8426    4.0718    3.9842 C.ar        1 B68      -0.0490
      7 C17        28.1128    3.6262    3.5628 C.ar        1 B68      -0.0458
      8 C20        25.7961    2.6083    2.3616 C.ar        1 B68      -0.0490
      9 C21        27.0590    2.1433    1.9531 C.ar        1 B68      -0.0458
     10 C16        28.2239    2.6241    2.5707 C.ar        1 B68       0.0758
     11 O14        29.4186    2.0958    2.1535 O.3         1 B68      -0.3258
     12 C13        30.1856    1.3850    3.1459 C.3         1 B68       0.1074
     13 C11        29.5713    0.0372    3.6863 C.3         1 B68       0.2174
     14 O11        28.1404    0.0424    3.5090 O.3         1 B68      -0.3787
     15 C12        30.0705   -1.1954    2.8713 C.3         1 B68      -0.0220
     16 C10        29.8301   -0.0814    5.1227 C.2         1 B68       0.4188
     17 O10        30.7936   -0.7188    5.5228 O.2         1 B68      -0.2202
     18 N9         29.1078    0.6826    5.9438 N.am        1 B68      -0.0739
     19 C6         29.0955    0.7655    7.3111 C.ar        1 B68       0.3494
     20 C5         29.5544   -0.2394    8.1887 C.ar        1 B68       0.1646
     21 C1         28.4862    1.9007    7.8660 C.ar        1 B68       0.1428
     22 C2         28.3578    2.0316    9.2561 C.ar        1 B68       0.0951
     23 C3         28.8288    1.0367   10.1580 C.ar        1 B68       0.2051
     24 N8         28.6322    1.2599   11.4994 N.2         1 B68      -0.1292
     25 O1         29.0284    0.4771   12.4598 O.2         1 B68      -0.4447
     26 O2         28.0395    2.2193   11.9199 O.2         1 B68      -0.4447
     27 C4         29.4598   -0.1295    9.6014 C.ar        1 B68       0.1925
     28 C7         30.0097   -1.2603   10.4227 C.3         1 B68       0.4082
     29 F2         31.0152   -0.8073   11.2426 F           1 B68      -0.2146
     30 F1         29.0088   -1.8455   11.1545 F           1 B68      -0.2146
     31 F3         30.5852   -2.3022    9.7253 F           1 B68      -0.2146
     32 H1         22.4644    5.2888    4.7885 H           1 B68       0.0471
     33 H2         21.5115    3.7933    4.7578 H           1 B68       0.0471
     34 H3         21.5009    4.8874    3.3565 H           1 B68       0.0471
     35 H4         24.5641    4.7849    4.5144 H           1 B68       0.2220
     36 H5         26.7929    4.7852    4.7159 H           1 B68       0.0478
     37 H6         28.9529    4.0221    3.9927 H           1 B68       0.0507
     38 H7         24.9880    2.2436    1.8655 H           1 B68       0.0478
     39 H8         27.1196    1.4579    1.1993 H           1 B68       0.0507
     40 H9         30.4243    2.0873    3.9568 H           1 B68       0.0624
     41 H10        31.1495    1.1786    2.6740 H           1 B68       0.0624
     42 H11        27.8094   -0.7936    3.9379 H           1 B68       0.2081
     43 H12        29.6267   -2.1171    3.2644 H           1 B68       0.0246
     44 H13        31.1604   -1.2922    2.9250 H           1 B68       0.0246
     45 H14        29.7816   -1.0940    1.8221 H           1 B68       0.0246
     46 H15        28.4835    1.2882    5.5044 H           1 B68       0.4378
     47 H16        29.9265   -1.0887    7.7800 H           1 B68       0.1807
     48 H17        28.1204    2.6373    7.2568 H           1 B68       0.1438
     49 H18        27.9038    2.8798    9.5959 H           1 B68       0.1091
@<TRIPOS>BOND
     1     1     2   1
     2     2     3   2
     3     2     4  am
     4     4     5   1
     5     5     6  ar
     6     5     8  ar
     7     6     7  ar
     8     7    10  ar
     9     8     9  ar
    10     9    10  ar
    11    10    11   1
    12    11    12   1
    13    12    13   1
    14    13    14   1
    15    13    15   1
    16    13    16   1
    17    16    17   2
    18    16    18  am
    19    18    19   1
    20    19    20  ar
    21    19    21  ar
    22    20    27  ar
    23    21    22  ar
    24    22    23  ar
    25    23    24   1
    26    23    27  ar
    27    24    25   2
    28    24    26   2
    29    27    28   1
    30    28    29   1
    31    28    30   1
    32    28    31   1
    33     1    32   1
    34     1    33   1
    35     1    34   1
    36     4    35   1
    37     6    36   1
    38     7    37   1
    39     8    38   1
    40     9    39   1
    41    12    40   1
    42    12    41   1
    43    14    42   1
    44    15    43   1
    45    15    44   1
    46    15    45   1
    47    18    46   1
    48    20    47   1
    49    21    48   1
    50    22    49   1
@<TRIPOS>SUBSTRUCTURE
     1  B68      1

