@<TRIPOS>MOLECULE
3b68_ligand_019
    49    50
SMALL
GAST_HUCK
****
This file was generated by PARSER (from files_GN.cpp)

@<TRIPOS>ATOM
      1 C24        27.3071   -0.4878   14.6324 C.3         1 B68       0.0310
      2 C23        27.6080    0.3941   13.5272 C.2         1 B68       0.1976
      3 O23        26.8501    1.3349   13.3423 O.2         1 B68      -0.3866
      4 N22        28.6881    0.1628   12.7892 N.am        1 B68      -0.2404
      5 C19        29.1769    0.7924   11.6718 C.ar        1 B68       0.0556
      6 C18        30.4311    0.3396   11.2003 C.ar        1 B68      -0.0490
      7 C17        30.9843    0.8446   10.0101 C.ar        1 B68      -0.0458
      8 C20        28.5073    1.7970   10.9275 C.ar        1 B68      -0.0490
      9 C21        29.0588    2.3058    9.7404 C.ar        1 B68      -0.0458
     10 C16        30.2855    1.8112    9.2593 C.ar        1 B68       0.0758
     11 O14        30.7426    2.2096    8.0318 O.3         1 B68      -0.3258
     12 C13        30.3796    1.3098    6.9522 C.3         1 B68       0.1074
     13 C11        29.5131    2.0236    5.8636 C.3         1 B68       0.2174
     14 O11        28.5254    2.8083    6.5458 O.3         1 B68      -0.3787
     15 C12        30.3507    3.0274    5.0218 C.3         1 B68      -0.0220
     16 C10        28.8815    1.0312    4.9847 C.2         1 B68       0.4188
     17 O10        29.5969    0.1523    4.4998 O.2         1 B68      -0.2202
     18 N9         27.5746    1.0710    4.7512 N.am        1 B68      -0.0739
     19 C6         26.7632    0.1738    4.1203 C.ar        1 B68       0.3494
     20 C5         25.5855    0.6736    3.5406 C.ar        1 B68       0.1646
     21 C1         26.9579   -1.2198    4.1191 C.ar        1 B68       0.1428
     22 C2         26.0220   -2.0687    3.5149 C.ar        1 B68       0.0951
     23 C3         24.8557   -1.5769    2.8635 C.ar        1 B68       0.2051
     24 N8         24.0376   -2.5050    2.2531 N.2         1 B68      -0.1292
     25 O1         22.9712   -2.2198    1.5635 O.2         1 B68      -0.4447
     26 O2         24.2574   -3.6893    2.2650 O.2         1 B68      -0.4447
     27 C4         24.6255   -0.1531    2.8961 C.ar        1 B68       0.1925
     28 C7         23.4153    0.5213    2.3149 C.3         1 B68       0.4082
     29 F2         23.3745    0.3617    0.9515 F           1 B68      -0.2146
     30 F1         22.2750    0.0148    2.8869 F           1 B68      -0.2146
     31 F3         23.3204    1.8824    2.5035 F           1 B68      -0.2146
     32 H1         27.9762   -1.3496   14.6625 H           1 B68       0.0471
     33 H2         26.2834   -0.8536   14.5437 H           1 B68       0.0471
     34 H3         27.4052    0.0544   15.5712 H           1 B68       0.0471
     35 H4         29.2257   -0.5885   13.0892 H           1 B68       0.2220
     36 H5         30.9422   -0.3872   11.7097 H           1 B68       0.0478
     37 H6         31.8744    0.4787    9.6676 H           1 B68       0.0507
     38 H7         27.5990    2.1527   11.2143 H           1 B68       0.0478
     39 H8         28.5474    3.0136    9.2102 H           1 B68       0.0507
     40 H9         29.8402    0.4114    7.2960 H           1 B68       0.0624
     41 H10        31.3109    0.9559    6.4993 H           1 B68       0.0624
     42 H11        28.0223    2.1841    7.1111 H           1 B68       0.2081
     43 H12        29.7130    3.5301    4.2908 H           1 B68       0.0246
     44 H13        31.1598    2.5210    4.4872 H           1 B68       0.0246
     45 H14        30.7889    3.7921    5.6649 H           1 B68       0.0246
     46 H15        27.1215    1.8755    5.0536 H           1 B68       0.4378
     47 H16        25.4464    1.6864    3.5818 H           1 B68       0.1807
     48 H17        27.7611   -1.6415    4.5785 H           1 B68       0.1438
     49 H18        26.2084   -3.0722    3.5639 H           1 B68       0.1091
@<TRIPOS>BOND
     1     1     2   1
     2     2     3   2
     3     2     4  am
     4     4     5   1
     5     5     6  ar
     6     5     8  ar
     7     6     7  ar
     8     7    10  ar
     9     8     9  ar
    10     9    10  ar
    11    10    11   1
    12    11    12   1
    13    12    13   1
    14    13    14   1
    15    13    15   1
    16    13    16   1
    17    16    17   2
    18    16    18  am
    19    18    19   1
    20    19    20  ar
    21    19    21  ar
    22    20    27  ar
    23    21    22  ar
    24    22    23  ar
    25    23    24   1
    26    23    27  ar
    27    24    25   2
    28    24    26   2
    29    27    28   1
    30    28    29   1
    31    28    30   1
    32    28    31   1
    33     1    32   1
    34     1    33   1
    35     1    34   1
    36     4    35   1
    37     6    36   1
    38     7    37   1
    39     8    38   1
    40     9    39   1
    41    12    40   1
    42    12    41   1
    43    14    42   1
    44    15    43   1
    45    15    44   1
    46    15    45   1
    47    18    46   1
    48    20    47   1
    49    21    48   1
    50    22    49   1
@<TRIPOS>SUBSTRUCTURE
     1  B68      1

