@<TRIPOS>MOLECULE
3b68_ligand_021
    49    50
SMALL
GAST_HUCK
****
This file was generated by PARSER (from files_GN.cpp)

@<TRIPOS>ATOM
      1 C24        29.6388   -0.7502   14.9149 C.3         1 B68       0.0310
      2 C23        30.0140   -0.4459   13.5546 C.2         1 B68       0.1976
      3 O23        30.7738   -1.2309   13.0028 O.2         1 B68      -0.3866
      4 N22        29.4842    0.6149   12.9494 N.am        1 B68      -0.2404
      5 C19        29.6699    1.0919   11.6788 C.ar        1 B68       0.0556
      6 C18        28.7785    1.9618   10.9980 C.ar        1 B68      -0.0490
      7 C17        29.0647    2.4074    9.6927 C.ar        1 B68      -0.0458
      8 C20        30.8244    0.6536   10.9953 C.ar        1 B68      -0.0490
      9 C21        31.1123    1.0946    9.6950 C.ar        1 B68      -0.0458
     10 C16        30.2434    1.9872    9.0447 C.ar        1 B68       0.0758
     11 O14        30.5376    2.3869    7.7724 O.3         1 B68      -0.3258
     12 C13        29.6825    1.8107    6.7612 C.3         1 B68       0.1074
     13 C11        29.3423    2.8876    5.6882 C.3         1 B68       0.2174
     14 O11        29.2052    4.1406    6.3730 O.3         1 B68      -0.3787
     15 C12        30.5236    3.0747    4.6939 C.3         1 B68      -0.0220
     16 C10        28.1158    2.5177    4.9698 C.2         1 B68       0.4188
     17 O10        28.1589    1.5275    4.2513 O.2         1 B68      -0.2202
     18 N9         26.9904    3.1990    5.1637 N.am        1 B68      -0.0739
     19 C6         25.7106    3.0205    4.7004 C.ar        1 B68       0.3494
     20 C5         25.2726    2.0576    3.7653 C.ar        1 B68       0.1646
     21 C1         24.7470    3.8905    5.2343 C.ar        1 B68       0.1428
     22 C2         23.4009    3.7910    4.8606 C.ar        1 B68       0.0951
     23 C3         22.9369    2.8181    3.9330 C.ar        1 B68       0.2051
     24 N8         21.5910    2.8119    3.6483 N.2         1 B68      -0.1292
     25 O1         20.9987    2.0000    2.8222 O.2         1 B68      -0.4447
     26 O2         20.8087    3.5770    4.1520 O.2         1 B68      -0.4447
     27 C4         23.9124    1.9230    3.3700 C.ar        1 B68       0.1925
     28 C7         23.5756    0.8395    2.3850 C.3         1 B68       0.4082
     29 F2         22.6944   -0.0554    2.9414 F           1 B68      -0.2146
     30 F1         23.0543    1.3822    1.2358 F           1 B68      -0.2146
     31 F3         24.6233    0.0588    1.9508 F           1 B68      -0.2146
     32 H1         28.9396   -0.0146   15.3182 H           1 B68       0.0471
     33 H2         30.5279   -0.7593   15.5476 H           1 B68       0.0471
     34 H3         29.1642   -1.7325   14.9584 H           1 B68       0.0471
     35 H4         28.8312    1.0958   13.4775 H           1 B68       0.2220
     36 H5         27.9036    2.2640   11.4273 H           1 B68       0.0478
     37 H6         28.4134    3.0328    9.2120 H           1 B68       0.0507
     38 H7         31.4795    0.0131   11.4452 H           1 B68       0.0478
     39 H8         31.9586    0.7676    9.2238 H           1 B68       0.0507
     40 H9         28.7485    1.4276    7.1922 H           1 B68       0.0624
     41 H10        30.2056    0.9726    6.2918 H           1 B68       0.0624
     42 H11        28.6222    3.9588    7.1391 H           1 B68       0.2081
     43 H12        30.2754    3.8325    3.9482 H           1 B68       0.0246
     44 H13        30.7534    2.1405    4.1753 H           1 B68       0.0246
     45 H14        31.4206    3.3988    5.2251 H           1 B68       0.0246
     46 H15        27.0815    3.9440    5.7772 H           1 B68       0.4378
     47 H16        25.9664    1.4381    3.3590 H           1 B68       0.1807
     48 H17        25.0175    4.6092    5.9129 H           1 B68       0.1438
     49 H18        22.7540    4.4557    5.2916 H           1 B68       0.1091
@<TRIPOS>BOND
     1     1     2   1
     2     2     3   2
     3     2     4  am
     4     4     5   1
     5     5     6  ar
     6     5     8  ar
     7     6     7  ar
     8     7    10  ar
     9     8     9  ar
    10     9    10  ar
    11    10    11   1
    12    11    12   1
    13    12    13   1
    14    13    14   1
    15    13    15   1
    16    13    16   1
    17    16    17   2
    18    16    18  am
    19    18    19   1
    20    19    20  ar
    21    19    21  ar
    22    20    27  ar
    23    21    22  ar
    24    22    23  ar
    25    23    24   1
    26    23    27  ar
    27    24    25   2
    28    24    26   2
    29    27    28   1
    30    28    29   1
    31    28    30   1
    32    28    31   1
    33     1    32   1
    34     1    33   1
    35     1    34   1
    36     4    35   1
    37     6    36   1
    38     7    37   1
    39     8    38   1
    40     9    39   1
    41    12    40   1
    42    12    41   1
    43    14    42   1
    44    15    43   1
    45    15    44   1
    46    15    45   1
    47    18    46   1
    48    20    47   1
    49    21    48   1
    50    22    49   1
@<TRIPOS>SUBSTRUCTURE
     1  B68      1

