@<TRIPOS>MOLECULE
3b68_ligand_001
    49    50
SMALL
GAST_HUCK
****
This file was generated by PARSER (from files_GN.cpp)

@<TRIPOS>ATOM
      1 C24        28.8399   -0.6463   15.4630 C.3         1 B68       0.0310
      2 C23        29.2059   -0.5609   14.0686 C.2         1 B68       0.1976
      3 O23        30.1546   -1.2376   13.6998 O.2         1 B68      -0.3866
      4 N22        28.5802    0.2977   13.2740 N.am        1 B68      -0.2404
      5 C19        28.7222    0.4993   11.9288 C.ar        1 B68       0.0556
      6 C18        29.2272   -0.4603   11.0156 C.ar        1 B68      -0.0490
      7 C17        29.3263   -0.1650    9.6447 C.ar        1 B68      -0.0458
      8 C20        28.2733    1.7378   11.4186 C.ar        1 B68      -0.0490
      9 C21        28.3691    2.0338   10.0454 C.ar        1 B68      -0.0458
     10 C16        28.9145    1.0869    9.1527 C.ar        1 B68       0.0758
     11 O14        28.9047    1.2908    7.8009 O.3         1 B68      -0.3258
     12 C13        30.1562    1.6505    7.1732 C.3         1 B68       0.1074
     13 C11        30.1641    1.2745    5.6534 C.3         1 B68       0.2174
     14 O11        31.1650    2.0937    5.0178 O.3         1 B68      -0.3787
     15 C12        30.5984   -0.2123    5.4545 C.3         1 B68      -0.0220
     16 C10        28.8548    1.5377    5.0529 C.2         1 B68       0.4188
     17 O10        27.9668    0.7146    5.2246 O.2         1 B68      -0.2202
     18 N9         28.5757    2.7585    4.6019 N.am        1 B68      -0.0739
     19 C6         27.3796    3.3076    4.1812 C.ar        1 B68       0.3494
     20 C5         27.3604    4.7071    4.0135 C.ar        1 B68       0.1646
     21 C1         26.1877    2.6051    3.8947 C.ar        1 B68       0.1428
     22 C2         25.0334    3.2742    3.4727 C.ar        1 B68       0.0951
     23 C3         24.9954    4.6859    3.3199 C.ar        1 B68       0.2051
     24 N8         23.7899    5.2416    2.9540 N.2         1 B68      -0.1292
     25 O1         23.5650    6.5095    2.7866 O.2         1 B68      -0.4447
     26 O2         22.7934    4.5925    2.7639 O.2         1 B68      -0.4447
     27 C4         26.2068    5.4195    3.5786 C.ar        1 B68       0.1925
     28 C7         26.3201    6.9085    3.4251 C.3         1 B68       0.4082
     29 F2         26.0534    7.2744    2.1298 F           1 B68      -0.2146
     30 F1         25.4634    7.5311    4.2951 F           1 B68      -0.2146
     31 F3         27.5524    7.4554    3.6993 F           1 B68      -0.2146
     32 H1         27.9376   -0.0736   15.6831 H           1 B68       0.0471
     33 H2         29.6525   -0.2604   16.0792 H           1 B68       0.0471
     34 H3         28.6551   -1.6895   15.7286 H           1 B68       0.0471
     35 H4         27.9913    0.9188   13.7318 H           1 B68       0.2220
     36 H5         29.5016   -1.3947   11.3280 H           1 B68       0.0478
     37 H6         29.6789   -0.8749    9.0019 H           1 B68       0.0507
     38 H7         27.8696    2.4304   12.0506 H           1 B68       0.0478
     39 H8         28.0253    2.9361    9.6954 H           1 B68       0.0507
     40 H9         31.0272    1.1834    7.6558 H           1 B68       0.0624
     41 H10        30.2689    2.7328    7.2878 H           1 B68       0.0624
     42 H11        31.5950    1.5420    4.3124 H           1 B68       0.2081
     43 H12        30.5322   -0.4947    4.4002 H           1 B68       0.0246
     44 H13        29.9510   -0.8789    6.0284 H           1 B68       0.0246
     45 H14        31.6265   -0.3711    5.7834 H           1 B68       0.0246
     46 H15        29.3136    3.3797    4.6098 H           1 B68       0.4378
     47 H16        28.2162    5.2129    4.2346 H           1 B68       0.1807
     48 H17        26.1367    1.5887    3.9840 H           1 B68       0.1438
     49 H18        24.2150    2.7011    3.2942 H           1 B68       0.1091
@<TRIPOS>BOND
     1     1     2   1
     2     2     3   2
     3     2     4  am
     4     4     5   1
     5     5     6  ar
     6     5     8  ar
     7     6     7  ar
     8     7    10  ar
     9     8     9  ar
    10     9    10  ar
    11    10    11   1
    12    11    12   1
    13    12    13   1
    14    13    14   1
    15    13    15   1
    16    13    16   1
    17    16    17   2
    18    16    18  am
    19    18    19   1
    20    19    20  ar
    21    19    21  ar
    22    20    27  ar
    23    21    22  ar
    24    22    23  ar
    25    23    24   1
    26    23    27  ar
    27    24    25   2
    28    24    26   2
    29    27    28   1
    30    28    29   1
    31    28    30   1
    32    28    31   1
    33     1    32   1
    34     1    33   1
    35     1    34   1
    36     4    35   1
    37     6    36   1
    38     7    37   1
    39     8    38   1
    40     9    39   1
    41    12    40   1
    42    12    41   1
    43    14    42   1
    44    15    43   1
    45    15    44   1
    46    15    45   1
    47    18    46   1
    48    20    47   1
    49    21    48   1
    50    22    49   1
@<TRIPOS>SUBSTRUCTURE
     1  B68      1

