@<TRIPOS>MOLECULE
3b68_ligand_015
    49    50
SMALL
GAST_HUCK
****
This file was generated by PARSER (from files_GN.cpp)

@<TRIPOS>ATOM
      1 C24        28.5034   -1.3680   16.6014 C.3         1 B68       0.0310
      2 C23        29.0089   -1.2198   15.2556 C.2         1 B68       0.1976
      3 O23        29.9182   -1.9580   14.9066 O.2         1 B68      -0.3866
      4 N22        28.4484   -0.3350   14.4426 N.am        1 B68      -0.2404
      5 C19        28.7285   -0.0236   13.1405 C.ar        1 B68       0.0556
      6 C18        29.9449   -0.2907   12.4609 C.ar        1 B68      -0.0490
      7 C17        30.1171    0.0882   11.1152 C.ar        1 B68      -0.0458
      8 C20        27.7066    0.6554   12.4435 C.ar        1 B68      -0.0490
      9 C21        27.8722    1.0261   11.0988 C.ar        1 B68      -0.0458
     10 C16        29.0796    0.7501   10.4323 C.ar        1 B68       0.0758
     11 O14        29.2045    1.1180    9.1233 O.3         1 B68      -0.3258
     12 C13        29.6992    2.4591    8.9137 C.3         1 B68       0.1074
     13 C11        29.0339    3.0749    7.6434 C.3         1 B68       0.2174
     14 O11        27.6511    3.2466    7.9816 O.3         1 B68      -0.3787
     15 C12        29.6374    4.4752    7.3433 C.3         1 B68      -0.0220
     16 C10        29.1061    2.2737    6.4224 C.2         1 B68       0.4188
     17 O10        28.3479    2.5820    5.5122 O.2         1 B68      -0.2202
     18 N9         29.9959    1.2967    6.3048 N.am        1 B68      -0.0739
     19 C6         30.2784    0.4390    5.2854 C.ar        1 B68       0.3494
     20 C5         29.7308    0.4595    3.9857 C.ar        1 B68       0.1646
     21 C1         31.2290   -0.5447    5.5867 C.ar        1 B68       0.1428
     22 C2         31.6197   -1.4747    4.6200 C.ar        1 B68       0.0951
     23 C3         31.1147   -1.4448    3.2924 C.ar        1 B68       0.2051
     24 N8         31.6325   -2.3583    2.4125 N.2         1 B68      -0.1292
     25 O1         31.3020   -2.4533    1.1647 O.2         1 B68      -0.4447
     26 O2         32.4878   -3.1497    2.7121 O.2         1 B68      -0.4447
     27 C4         30.1241   -0.4535    2.9741 C.ar        1 B68       0.1925
     28 C7         29.4831   -0.3026    1.6243 C.3         1 B68       0.4082
     29 F2         30.4324    0.0441    0.6940 F           1 B68      -0.2146
     30 F1         28.8399   -1.4631    1.2727 F           1 B68      -0.2146
     31 F3         28.5109    0.6656    1.5032 F           1 B68      -0.2146
     32 H1         27.6136   -0.7575   16.7669 H           1 B68       0.0471
     33 H2         29.2674   -1.0602   17.3164 H           1 B68       0.0471
     34 H3         28.2409   -2.4104   16.7935 H           1 B68       0.0471
     35 H4         27.6922    0.1425   14.8210 H           1 B68       0.2220
     36 H5         30.7265   -0.7422   12.9351 H           1 B68       0.0478
     37 H6         30.9991   -0.1109   10.6371 H           1 B68       0.0507
     38 H7         26.8198    0.8707   12.9075 H           1 B68       0.0478
     39 H8         27.1164    1.5068   10.6067 H           1 B68       0.0507
     40 H9         30.7865    2.4170    8.8047 H           1 B68       0.0624
     41 H10        29.4780    3.1186    9.7577 H           1 B68       0.0624
     42 H11        27.2879    2.3429    8.1080 H           1 B68       0.2081
     43 H12        29.1755    4.9226    6.4615 H           1 B68       0.0246
     44 H13        30.7136    4.4038    7.1725 H           1 B68       0.0246
     45 H14        29.4649    5.1518    8.1747 H           1 B68       0.0246
     46 H15        30.5459    1.1553    7.0891 H           1 B68       0.4378
     47 H16        29.0438    1.1734    3.7652 H           1 B68       0.1807
     48 H17        31.6522   -0.5953    6.5191 H           1 B68       0.1438
     49 H18        32.3032   -2.1759    4.9083 H           1 B68       0.1091
@<TRIPOS>BOND
     1     1     2   1
     2     2     3   2
     3     2     4  am
     4     4     5   1
     5     5     6  ar
     6     5     8  ar
     7     6     7  ar
     8     7    10  ar
     9     8     9  ar
    10     9    10  ar
    11    10    11   1
    12    11    12   1
    13    12    13   1
    14    13    14   1
    15    13    15   1
    16    13    16   1
    17    16    17   2
    18    16    18  am
    19    18    19   1
    20    19    20  ar
    21    19    21  ar
    22    20    27  ar
    23    21    22  ar
    24    22    23  ar
    25    23    24   1
    26    23    27  ar
    27    24    25   2
    28    24    26   2
    29    27    28   1
    30    28    29   1
    31    28    30   1
    32    28    31   1
    33     1    32   1
    34     1    33   1
    35     1    34   1
    36     4    35   1
    37     6    36   1
    38     7    37   1
    39     8    38   1
    40     9    39   1
    41    12    40   1
    42    12    41   1
    43    14    42   1
    44    15    43   1
    45    15    44   1
    46    15    45   1
    47    18    46   1
    48    20    47   1
    49    21    48   1
    50    22    49   1
@<TRIPOS>SUBSTRUCTURE
     1  B68      1

