@<TRIPOS>MOLECULE
3b68_ligand_013
    49    50
SMALL
GAST_HUCK
****
This file was generated by PARSER (from files_GN.cpp)

@<TRIPOS>ATOM
      1 C24        31.2515   -0.7951   13.3801 C.3         1 B68       0.0310
      2 C23        30.6804    0.2711   12.5835 C.2         1 B68       0.1976
      3 O23        30.1156    1.1833   13.1691 O.2         1 B68      -0.3866
      4 N22        30.8234    0.2524   11.2630 N.am        1 B68      -0.2404
      5 C19        30.2813    1.0550   10.2978 C.ar        1 B68       0.0556
      6 C18        30.9283    1.0442    9.0399 C.ar        1 B68      -0.0490
      7 C17        30.3580    1.6854    7.9301 C.ar        1 B68      -0.0458
      8 C20        29.0639    1.7726   10.4190 C.ar        1 B68      -0.0490
      9 C21        28.4988    2.4283    9.3068 C.ar        1 B68      -0.0458
     10 C16        29.1346    2.3737    8.0542 C.ar        1 B68       0.0758
     11 O14        28.4158    2.7446    6.9489 O.3         1 B68      -0.3258
     12 C13        28.9223    3.7607    6.0607 C.3         1 B68       0.1074
     13 C11        28.0964    3.6985    4.7313 C.3         1 B68       0.2174
     14 O11        26.7065    3.6519    5.0763 O.3         1 B68      -0.3787
     15 C12        28.2680    4.9823    3.8678 C.3         1 B68      -0.0220
     16 C10        28.4728    2.4746    4.0139 C.2         1 B68       0.4188
     17 O10        29.3953    2.5155    3.2056 O.2         1 B68      -0.2202
     18 N9         27.9835    1.3039    4.4077 N.am        1 B68      -0.0739
     19 C6         28.5417    0.0765    4.1902 C.ar        1 B68       0.3494
     20 C5         29.9161   -0.1524    4.3922 C.ar        1 B68       0.1646
     21 C1         27.7190   -1.0106    3.8732 C.ar        1 B68       0.1428
     22 C2         28.2872   -2.2793    3.6717 C.ar        1 B68       0.0951
     23 C3         29.6828   -2.5269    3.8162 C.ar        1 B68       0.2051
     24 N8         30.1475   -3.7951    3.5598 N.2         1 B68      -0.1292
     25 O1         31.3889   -4.1687    3.5954 O.2         1 B68      -0.4447
     26 O2         29.4282   -4.7072    3.2470 O.2         1 B68      -0.4447
     27 C4         30.5085   -1.4322    4.2348 C.ar        1 B68       0.1925
     28 C7         31.9772   -1.5523    4.5110 C.3         1 B68       0.4082
     29 F2         32.2178   -2.5250    5.4510 F           1 B68      -0.2146
     30 F1         32.6361   -1.8243    3.3350 F           1 B68      -0.2146
     31 F3         32.5885   -0.4376    5.0383 F           1 B68      -0.2146
     32 H1         31.7671   -1.5314   12.7606 H           1 B68       0.0471
     33 H2         30.4618   -1.3096   13.9326 H           1 B68       0.0471
     34 H3         31.9698   -0.3922   14.0950 H           1 B68       0.0471
     35 H4         31.4011   -0.4528   10.9305 H           1 B68       0.2220
     36 H5         31.7956    0.5186    8.9116 H           1 B68       0.0478
     37 H6         30.8074    1.5961    7.0169 H           1 B68       0.0507
     38 H7         28.5399    1.7703   11.2956 H           1 B68       0.0478
     39 H8         27.5801    2.8740    9.3975 H           1 B68       0.0507
     40 H9         29.9904    3.6068    5.8472 H           1 B68       0.0624
     41 H10        28.8170    4.7404    6.5361 H           1 B68       0.0624
     42 H11        26.2255    3.5474    4.2292 H           1 B68       0.2081
     43 H12        27.6707    4.9036    2.9593 H           1 B68       0.0246
     44 H13        29.3076    5.1267    3.5842 H           1 B68       0.0246
     45 H14        27.9389    5.8634    4.4201 H           1 B68       0.0246
     46 H15        27.1896    1.3192    4.9693 H           1 B68       0.4378
     47 H16        30.4874    0.6425    4.6854 H           1 B68       0.1807
     48 H17        26.7106   -0.8829    3.7574 H           1 B68       0.1438
     49 H18        27.6428   -3.0290    3.4245 H           1 B68       0.1091
@<TRIPOS>BOND
     1     1     2   1
     2     2     3   2
     3     2     4  am
     4     4     5   1
     5     5     6  ar
     6     5     8  ar
     7     6     7  ar
     8     7    10  ar
     9     8     9  ar
    10     9    10  ar
    11    10    11   1
    12    11    12   1
    13    12    13   1
    14    13    14   1
    15    13    15   1
    16    13    16   1
    17    16    17   2
    18    16    18  am
    19    18    19   1
    20    19    20  ar
    21    19    21  ar
    22    20    27  ar
    23    21    22  ar
    24    22    23  ar
    25    23    24   1
    26    23    27  ar
    27    24    25   2
    28    24    26   2
    29    27    28   1
    30    28    29   1
    31    28    30   1
    32    28    31   1
    33     1    32   1
    34     1    33   1
    35     1    34   1
    36     4    35   1
    37     6    36   1
    38     7    37   1
    39     8    38   1
    40     9    39   1
    41    12    40   1
    42    12    41   1
    43    14    42   1
    44    15    43   1
    45    15    44   1
    46    15    45   1
    47    18    46   1
    48    20    47   1
    49    21    48   1
    50    22    49   1
@<TRIPOS>SUBSTRUCTURE
     1  B68      1

