@<TRIPOS>MOLECULE
3b68_ligand_026
    49    50
SMALL
GAST_HUCK
****
This file was generated by PARSER (from files_GN.cpp)

@<TRIPOS>ATOM
      1 C24        30.4155    2.4399    4.9272 C.3         1 B68       0.0310
      2 C23        29.8354    2.3968    6.2509 C.2         1 B68       0.1976
      3 O23        28.7559    2.9472    6.4063 O.2         1 B68      -0.3866
      4 N22        30.4521    1.7189    7.2092 N.am        1 B68      -0.2404
      5 C19        30.0931    1.4980    8.5110 C.ar        1 B68       0.0556
      6 C18        30.7684    0.4393    9.1582 C.ar        1 B68      -0.0490
      7 C17        30.4435    0.0675   10.4728 C.ar        1 B68      -0.0458
      8 C20        29.1350    2.2252    9.2526 C.ar        1 B68      -0.0490
      9 C21        28.7949    1.8397   10.5658 C.ar        1 B68      -0.0458
     10 C16        29.4172    0.7353   11.1882 C.ar        1 B68       0.0758
     11 O14        28.9952    0.4157   12.4659 O.3         1 B68      -0.3258
     12 C13        29.2342   -0.9113   12.9933 C.3         1 B68       0.1074
     13 C11        28.6439   -1.1401   14.4200 C.3         1 B68       0.2174
     14 O11        29.1683   -2.3747   14.9423 O.3         1 B68      -0.3787
     15 C12        29.1956   -0.0869   15.4179 C.3         1 B68      -0.0220
     16 C10        27.1748   -1.2373   14.3948 C.2         1 B68       0.4188
     17 O10        26.6889   -2.3448   14.2313 O.2         1 B68      -0.2202
     18 N9         26.4065   -0.1520   14.3504 N.am        1 B68      -0.0739
     19 C6         25.0337   -0.0358   14.2697 C.ar        1 B68       0.3494
     20 C5         24.0681   -1.0293   14.5583 C.ar        1 B68       0.1646
     21 C1         24.5601    1.2323   13.9063 C.ar        1 B68       0.1428
     22 C2         23.1890    1.5039   13.8628 C.ar        1 B68       0.0951
     23 C3         22.2043    0.5107   14.1073 C.ar        1 B68       0.2051
     24 N8         20.8911    0.8992   14.0142 N.2         1 B68      -0.1292
     25 O1         19.8742    0.1042   14.1186 O.2         1 B68      -0.4447
     26 O2         20.5460    2.0399   13.8221 O.2         1 B68      -0.4447
     27 C4         22.6675   -0.8119   14.4319 C.ar        1 B68       0.1925
     28 C7         21.7505   -1.9859   14.6346 C.3         1 B68       0.4082
     29 F2         20.9086   -1.7735   15.7003 F           1 B68      -0.2146
     30 F1         21.0233   -2.2229   13.4911 F           1 B68      -0.2146
     31 F3         22.3589   -3.1920   14.9019 F           1 B68      -0.2146
     32 H1         31.3749    1.9181    4.8829 H           1 B68       0.0471
     33 H2         30.5762    3.4792    4.6329 H           1 B68       0.0471
     34 H3         29.7350    1.9693    4.2133 H           1 B68       0.0471
     35 H4         31.2552    1.2520    6.9280 H           1 B68       0.2220
     36 H5         31.4936   -0.0934    8.6595 H           1 B68       0.0478
     37 H6         30.9530   -0.7129   10.8871 H           1 B68       0.0507
     38 H7         28.6784    3.0471    8.8577 H           1 B68       0.0478
     39 H8         28.0826    2.3751   11.0724 H           1 B68       0.0507
     40 H9         30.3144   -1.0582   13.0749 H           1 B68       0.0624
     41 H10        28.8385   -1.6592   12.2989 H           1 B68       0.0624
     42 H11        28.5501   -3.0866   14.6528 H           1 B68       0.2081
     43 H12        28.8368   -0.2950   16.4291 H           1 B68       0.0246
     44 H13        28.8861    0.9166   15.1355 H           1 B68       0.0246
     45 H14        30.2898   -0.1041   15.4313 H           1 B68       0.0246
     46 H15        26.8875    0.6943   14.3474 H           1 B68       0.4378
     47 H16        24.3944   -1.9370   14.8724 H           1 B68       0.1807
     48 H17        25.2220    1.9880   13.7087 H           1 B68       0.1438
     49 H18        22.9167    2.4626   13.6408 H           1 B68       0.1091
@<TRIPOS>BOND
     1     1     2   1
     2     2     3   2
     3     2     4  am
     4     4     5   1
     5     5     6  ar
     6     5     8  ar
     7     6     7  ar
     8     7    10  ar
     9     8     9  ar
    10     9    10  ar
    11    10    11   1
    12    11    12   1
    13    12    13   1
    14    13    14   1
    15    13    15   1
    16    13    16   1
    17    16    17   2
    18    16    18  am
    19    18    19   1
    20    19    20  ar
    21    19    21  ar
    22    20    27  ar
    23    21    22  ar
    24    22    23  ar
    25    23    24   1
    26    23    27  ar
    27    24    25   2
    28    24    26   2
    29    27    28   1
    30    28    29   1
    31    28    30   1
    32    28    31   1
    33     1    32   1
    34     1    33   1
    35     1    34   1
    36     4    35   1
    37     6    36   1
    38     7    37   1
    39     8    38   1
    40     9    39   1
    41    12    40   1
    42    12    41   1
    43    14    42   1
    44    15    43   1
    45    15    44   1
    46    15    45   1
    47    18    46   1
    48    20    47   1
    49    21    48   1
    50    22    49   1
@<TRIPOS>SUBSTRUCTURE
     1  B68      1

