@<TRIPOS>MOLECULE
3bfu_ligand_001
    19    19
SMALL
GAST_HUCK
****
This file was generated by PARSER (from files_GN.cpp)

@<TRIPOS>ATOM
      1 N1        -29.1793   -5.1614   40.7726 N.2         1 R2P      -0.2273
      2 N         -31.6258   -4.3573   44.6909 N.4         1 R2P       0.2348
      3 CA        -31.2766   -4.2296   43.2659 C.3         1 R2P       0.0447
      4 C         -30.7151   -2.8887   42.9852 C.2         1 R2P       0.0876
      5 O2        -31.8495   -7.1346   41.1742 O.2         1 R2P      -0.3723
      6 CD2       -30.8958   -6.4938   40.7571 C.2         1 R2P       0.2535
      7 N2        -30.4376   -6.6445   39.5419 N.am        1 R2P      -0.2055
      8 SE1       -29.1088   -5.6720   39.2076 S.3         1 R2P       0.0735
      9 CG        -30.1611   -5.6244   41.4592 C.2         1 R2P       0.1296
     10 CB        -30.2931   -5.3776   42.8889 C.3         1 R2P       0.0738
     11 O         -30.5208   -2.4653   41.7185 O.co2       1 R2P      -0.5641
     12 O         -30.3963   -2.0328   43.9865 O.co2       1 R2P      -0.5641
     13 H1        -32.0739   -5.2617   44.8577 H           1 R2P       0.2012
     14 H2        -32.2816   -3.6231   44.9632 H           1 R2P       0.2012
     15 H3        -30.7889   -4.2846   45.2746 H           1 R2P       0.2012
     16 H4        -32.2042   -4.3412   42.6955 H           1 R2P       0.1059
     17 H5        -30.8064   -7.2873   38.9157 H           1 R2P       0.2067
     18 H6        -30.6211   -6.3052   43.3681 H           1 R2P       0.0598
     19 H7        -29.3131   -5.1570   43.3187 H           1 R2P       0.0598
@<TRIPOS>BOND
     1     1     8   1
     2     9     1   2
     3     3     2   1
     4     3     4   1
     5    10     3   1
     6     4    11  ar
     7     4    12  ar
     8     6     5   2
     9     6     7  am
    10     9     6   1
    11     7     8   1
    12     9    10   1
    13     2    13   1
    14     2    14   1
    15     2    15   1
    16     3    16   1
    17     7    17   1
    18    10    18   1
    19    10    19   1
@<TRIPOS>SUBSTRUCTURE
     1  R2P      3

