@<TRIPOS>MOLECULE
3bfu_ligand_007
    19    19
SMALL
GAST_HUCK
****
This file was generated by PARSER (from files_GN.cpp)

@<TRIPOS>ATOM
      1 N1        -31.5395   -7.6096   40.2715 N.2         1 R2P      -0.2273
      2 N         -31.1020   -4.0642   40.2763 N.4         1 R2P       0.2348
      3 CA        -30.0396   -4.9932   40.6952 C.3         1 R2P       0.0447
      4 C         -30.2574   -5.4956   42.0707 C.2         1 R2P       0.0876
      5 O2        -28.7358   -8.6856   38.8421 O.2         1 R2P      -0.3723
      6 CD2       -29.7891   -8.5774   39.4418 C.2         1 R2P       0.2535
      7 N2        -30.5201   -9.6013   39.7426 N.am        1 R2P      -0.2055
      8 SE1       -31.9961   -9.1909   40.4267 S.3         1 R2P       0.0735
      9 CG        -30.3758   -7.4274   39.7924 C.2         1 R2P       0.1296
     10 CB        -29.7903   -6.1026   39.6057 C.3         1 R2P       0.0738
     11 O         -31.3989   -5.2392   42.7473 O.co2       1 R2P      -0.5641
     12 O         -29.3271   -6.2758   42.6624 O.co2       1 R2P      -0.5641
     13 H1        -30.9123   -3.7438   39.3214 H           1 R2P       0.2012
     14 H2        -31.1123   -3.2572   40.9030 H           1 R2P       0.2012
     15 H3        -32.0087   -4.5334   40.3110 H           1 R2P       0.2012
     16 H4        -29.1367   -4.3741   40.7437 H           1 R2P       0.1059
     17 H5        -30.2584  -10.5197   39.5515 H           1 R2P       0.2067
     18 H6        -28.7023   -6.2032   39.5057 H           1 R2P       0.0598
     19 H7        -30.1382   -5.7240   38.6343 H           1 R2P       0.0598
@<TRIPOS>BOND
     1     1     8   1
     2     9     1   2
     3     3     2   1
     4     3     4   1
     5    10     3   1
     6     4    11  ar
     7     4    12  ar
     8     6     5   2
     9     6     7  am
    10     9     6   1
    11     7     8   1
    12     9    10   1
    13     2    13   1
    14     2    14   1
    15     2    15   1
    16     3    16   1
    17     7    17   1
    18    10    18   1
    19    10    19   1
@<TRIPOS>SUBSTRUCTURE
     1  R2P      3

