@<TRIPOS>MOLECULE
3bfu_ligand_009
    19    19
SMALL
GAST_HUCK
****
This file was generated by PARSER (from files_GN.cpp)

@<TRIPOS>ATOM
      1 N1        -32.4000   -6.7415   41.4336 N.2         1 R2P      -0.2273
      2 N         -29.5140   -4.9576   41.8698 N.4         1 R2P       0.2348
      3 CA        -30.4097   -4.4051   42.9047 C.3         1 R2P       0.0447
      4 C         -30.1155   -2.9699   43.1007 C.2         1 R2P       0.0876
      5 O2        -32.3551   -6.4717   44.7570 O.2         1 R2P      -0.3723
      6 CD2       -32.3857   -6.8537   43.5972 C.2         1 R2P       0.2535
      7 N2        -32.6579   -8.0884   43.2752 N.am        1 R2P      -0.2055
      8 SE1       -32.7371   -8.3533   41.6174 S.3         1 R2P       0.0735
      9 CG        -32.2370   -6.0820   42.5081 C.2         1 R2P       0.1296
     10 CB        -31.8916   -4.6648   42.5096 C.3         1 R2P       0.0738
     11 O         -30.5491   -2.3528   44.2271 O.co2       1 R2P      -0.5641
     12 O         -29.9191   -2.1678   42.0357 O.co2       1 R2P      -0.5641
     13 H1        -29.6931   -5.9557   41.7757 H           1 R2P       0.2012
     14 H2        -28.5447   -4.8076   42.1479 H           1 R2P       0.2012
     15 H3        -29.6870   -4.4926   40.9733 H           1 R2P       0.2012
     16 H4        -30.1755   -4.9159   43.8423 H           1 R2P       0.1059
     17 H5        -32.8343   -8.7861   43.9340 H           1 R2P       0.2067
     18 H6        -32.0587   -4.2473   41.5145 H           1 R2P       0.0598
     19 H7        -32.5612   -4.1419   43.1951 H           1 R2P       0.0598
@<TRIPOS>BOND
     1     1     8   1
     2     9     1   2
     3     3     2   1
     4     3     4   1
     5    10     3   1
     6     4    11  ar
     7     4    12  ar
     8     6     5   2
     9     6     7  am
    10     9     6   1
    11     7     8   1
    12     9    10   1
    13     2    13   1
    14     2    14   1
    15     2    15   1
    16     3    16   1
    17     7    17   1
    18    10    18   1
    19    10    19   1
@<TRIPOS>SUBSTRUCTURE
     1  R2P      3

