@<TRIPOS>MOLECULE
3bfu_ligand_008
    19    19
SMALL
GAST_HUCK
****
This file was generated by PARSER (from files_GN.cpp)

@<TRIPOS>ATOM
      1 N1        -30.8617   -8.2929   41.2658 N.2         1 R2P      -0.2273
      2 N         -31.3087   -4.4195   44.0777 N.4         1 R2P       0.2348
      3 CA        -31.2725   -5.0463   42.7403 C.3         1 R2P       0.0447
      4 C         -30.0777   -4.5437   42.0200 C.2         1 R2P       0.0876
      5 O2        -33.5759   -6.3604   40.9625 O.2         1 R2P      -0.3723
      6 CD2       -32.6826   -7.1921   40.8443 C.2         1 R2P       0.2535
      7 N2        -32.6551   -8.0402   39.8492 N.am        1 R2P      -0.2055
      8 SE1       -31.3310   -9.0790   39.8895 S.3         1 R2P       0.0735
      9 CG        -31.6212   -7.3334   41.6500 C.2         1 R2P       0.1296
     10 CB        -31.3631   -6.5958   42.8869 C.3         1 R2P       0.0738
     11 O         -29.0646   -5.3512   41.6204 O.co2       1 R2P      -0.5641
     12 O         -29.9801   -3.2175   41.7741 O.co2       1 R2P      -0.5641
     13 H1        -32.1303   -4.7529   44.5928 H           1 R2P       0.2012
     14 H2        -31.3870   -3.4051   43.9619 H           1 R2P       0.2012
     15 H3        -30.4581   -4.6494   44.6011 H           1 R2P       0.2012
     16 H4        -32.1557   -4.6878   42.2064 H           1 R2P       0.1059
     17 H5        -33.3331   -8.0710   39.1542 H           1 R2P       0.2067
     18 H6        -32.1684   -6.8379   43.5868 H           1 R2P       0.0598
     19 H7        -30.4357   -6.9567   43.3333 H           1 R2P       0.0598
@<TRIPOS>BOND
     1     1     8   1
     2     9     1   2
     3     3     2   1
     4     3     4   1
     5    10     3   1
     6     4    11  ar
     7     4    12  ar
     8     6     5   2
     9     6     7  am
    10     9     6   1
    11     7     8   1
    12     9    10   1
    13     2    13   1
    14     2    14   1
    15     2    15   1
    16     3    16   1
    17     7    17   1
    18    10    18   1
    19    10    19   1
@<TRIPOS>SUBSTRUCTURE
     1  R2P      3

