@<TRIPOS>MOLECULE
3bfu_ligand_005
    19    19
SMALL
GAST_HUCK
****
This file was generated by PARSER (from files_GN.cpp)

@<TRIPOS>ATOM
      1 N1        -30.0646   -6.7987   39.8702 N.2         1 R2P      -0.2273
      2 N         -30.9392   -3.8777   40.2048 N.4         1 R2P       0.2348
      3 CA        -30.4043   -4.3894   41.4790 C.3         1 R2P       0.0447
      4 C         -30.6142   -3.3514   42.5114 C.2         1 R2P       0.0876
      5 O2        -30.8284   -8.5840   42.5833 O.2         1 R2P      -0.3723
      6 CD2       -30.4318   -8.1705   41.5032 C.2         1 R2P       0.2535
      7 N2        -29.9020   -8.9641   40.6125 N.am        1 R2P      -0.2055
      8 SE1       -29.4958   -8.1895   39.1838 S.3         1 R2P       0.0735
      9 CG        -30.5066   -6.9039   41.0667 C.2         1 R2P       0.1296
     10 CB        -31.0312   -5.7744   41.8285 C.3         1 R2P       0.0738
     11 O         -31.5881   -3.4544   43.4428 O.co2       1 R2P      -0.5641
     12 O         -29.9536   -2.1751   42.4215 O.co2       1 R2P      -0.5641
     13 H1        -30.6603   -4.4718   39.4234 H           1 R2P       0.2012
     14 H2        -30.5867   -2.9360   40.0298 H           1 R2P       0.2012
     15 H3        -31.9579   -3.8428   40.2484 H           1 R2P       0.2012
     16 H4        -29.3243   -4.5107   41.3741 H           1 R2P       0.1059
     17 H5        -29.7769   -9.9147   40.7435 H           1 R2P       0.2067
     18 H6        -32.1133   -5.7329   41.6775 H           1 R2P       0.0598
     19 H7        -30.8564   -5.9651   42.8905 H           1 R2P       0.0598
@<TRIPOS>BOND
     1     1     8   1
     2     9     1   2
     3     3     2   1
     4     3     4   1
     5    10     3   1
     6     4    11  ar
     7     4    12  ar
     8     6     5   2
     9     6     7  am
    10     9     6   1
    11     7     8   1
    12     9    10   1
    13     2    13   1
    14     2    14   1
    15     2    15   1
    16     3    16   1
    17     7    17   1
    18    10    18   1
    19    10    19   1
@<TRIPOS>SUBSTRUCTURE
     1  R2P      3

