@<TRIPOS>MOLECULE
3bfu_ligand_017
    19    19
SMALL
GAST_HUCK
****
This file was generated by PARSER (from files_GN.cpp)

@<TRIPOS>ATOM
      1 N1        -29.7147   -5.8240   41.6891 N.2         1 R2P      -0.2273
      2 N         -30.1326   -9.4410   39.5128 N.4         1 R2P       0.2348
      3 CA        -30.9832   -8.4030   40.1210 C.3         1 R2P       0.0447
      4 C         -32.3916   -8.8362   40.0465 C.2         1 R2P       0.0876
      5 O2        -32.8244   -6.5477   42.6693 O.2         1 R2P      -0.3723
      6 CD2       -31.7697   -6.0168   42.3556 C.2         1 R2P       0.2535
      7 N2        -31.5742   -4.7321   42.4841 N.am        1 R2P      -0.2055
      8 SE1       -30.0429   -4.2386   42.0113 S.3         1 R2P       0.0735
      9 CG        -30.6743   -6.6435   41.9054 C.2         1 R2P       0.1296
     10 CB        -30.5441   -8.0605   41.5835 C.3         1 R2P       0.0738
     11 O         -32.8420   -9.8683   40.7948 O.co2       1 R2P      -0.5641
     12 O         -33.2100   -8.3546   39.0870 O.co2       1 R2P      -0.5641
     13 H1        -29.1674   -9.1034   39.4689 H           1 R2P       0.2012
     14 H2        -30.4524   -9.6460   38.5615 H           1 R2P       0.2012
     15 H3        -30.1617  -10.2989   40.0647 H           1 R2P       0.2012
     16 H4        -30.8550   -7.5207   39.4887 H           1 R2P       0.1059
     17 H5        -32.2396   -4.1201   42.8380 H           1 R2P       0.2067
     18 H6        -29.4976   -8.3475   41.7147 H           1 R2P       0.0598
     19 H7        -31.0985   -8.6551   42.3171 H           1 R2P       0.0598
@<TRIPOS>BOND
     1     1     8   1
     2     9     1   2
     3     3     2   1
     4     3     4   1
     5    10     3   1
     6     4    11  ar
     7     4    12  ar
     8     6     5   2
     9     6     7  am
    10     9     6   1
    11     7     8   1
    12     9    10   1
    13     2    13   1
    14     2    14   1
    15     2    15   1
    16     3    16   1
    17     7    17   1
    18    10    18   1
    19    10    19   1
@<TRIPOS>SUBSTRUCTURE
     1  R2P      3

