@<TRIPOS>MOLECULE
3bfu_ligand_013
    19    19
SMALL
GAST_HUCK
****
This file was generated by PARSER (from files_GN.cpp)

@<TRIPOS>ATOM
      1 N1        -32.1911   -8.1215   42.7895 N.2         1 R2P      -0.2273
      2 N         -31.1749   -4.2067   40.1070 N.4         1 R2P       0.2348
      3 CA        -30.9345   -5.6536   40.2799 C.3         1 R2P       0.0447
      4 C         -29.4836   -5.8654   40.4533 C.2         1 R2P       0.0876
      5 O2        -32.0699   -8.4404   39.4707 O.2         1 R2P      -0.3723
      6 CD2       -32.1512   -8.5849   40.6836 C.2         1 R2P       0.2535
      7 N2        -32.5289   -9.7266   41.2039 N.am        1 R2P      -0.2055
      8 SE1       -32.6326   -9.7039   42.8864 S.3         1 R2P       0.0735
      9 CG        -31.9357   -7.6512   41.6252 C.2         1 R2P       0.1296
     10 CB        -31.8143   -6.2003   41.4450 C.3         1 R2P       0.0738
     11 O         -28.9162   -5.5373   41.6338 O.co2       1 R2P      -0.5641
     12 O         -28.6912   -5.7034   39.3737 O.co2       1 R2P      -0.5641
     13 H1        -32.1742   -4.0518   39.9851 H           1 R2P       0.2012
     14 H2        -30.6836   -3.8892   39.2715 H           1 R2P       0.2012
     15 H3        -30.8494   -3.6930   40.9330 H           1 R2P       0.2012
     16 H4        -31.2362   -6.1384   39.3453 H           1 R2P       0.1059
     17 H5        -32.7562  -10.4870   40.6521 H           1 R2P       0.2067
     18 H6        -32.8405   -5.8375   41.3094 H           1 R2P       0.0598
     19 H7        -31.4572   -5.7424   42.3882 H           1 R2P       0.0598
@<TRIPOS>BOND
     1     1     8   1
     2     9     1   2
     3     3     2   1
     4     3     4   1
     5    10     3   1
     6     4    11  ar
     7     4    12  ar
     8     6     5   2
     9     6     7  am
    10     9     6   1
    11     7     8   1
    12     9    10   1
    13     2    13   1
    14     2    14   1
    15     2    15   1
    16     3    16   1
    17     7    17   1
    18    10    18   1
    19    10    19   1
@<TRIPOS>SUBSTRUCTURE
     1  R2P      3

