@<TRIPOS>MOLECULE
3bkk_ligand_002
    65    67
SMALL
GAST_HUCK
****
This file was generated by PARSER (from files_GN.cpp)

@<TRIPOS>ATOM
      1 CD1        46.9161   51.6167   39.9456 C.ar        1 KAF      -0.0602
      2 CE1        46.1702   52.2248   38.9160 C.ar        1 KAF      -0.0686
      3 CZ         44.7790   52.0330   38.8462 C.ar        1 KAF      -0.0687
      4 CE2        44.1304   51.2494   39.8143 C.ar        1 KAF      -0.0686
      5 CD2        44.8735   50.6578   40.8541 C.ar        1 KAF      -0.0602
      6 CG         46.2786   50.8133   40.9217 C.ar        1 KAF      -0.0392
      7 CB         47.0399   50.2033   42.0512 C.3         1 KAF       0.0159
      8 CA         46.8549   48.6496   42.2200 C.3         1 KAF       0.1038
      9 C          48.0158   47.8244   41.8221 C.2         1 KAF       0.0621
     10 O          48.9117   48.2580   40.9087 O.co2       1 KAF      -0.5664
     11 OXT        48.0393   46.5080   42.1348 O.co2       1 KAF      -0.5664
     12 N          46.5605   48.3832   43.6033 N.am        1 KAF      -0.2696
     13 CBC        45.4320   47.8850   44.0939 C.2         1 KAF       0.1780
     14 OAA        44.5565   47.4376   43.3636 O.2         1 KAF      -0.3970
     15 CAV        45.1807   47.9163   45.5263 C.3         1 KAF       0.0423
     16 CAW        45.7336   46.6772   46.3020 C.3         1 KAF       0.0204
     17 CBM        44.7291   45.9797   47.2746 C.3         1 KAF       0.1919
     18 OAE        43.6866   45.4166   46.4719 O.3         1 KAF      -0.3627
     19 OAF        44.1359   46.9176   48.1740 O.3         1 KAF      -0.3627
     20 CBL        45.3913   44.8510   48.1344 C.3         1 KAF       0.1045
     21 CAX        44.3518   44.0395   49.0057 C.3         1 KAF       0.0090
     22 CBF        44.2538   42.5422   48.9314 C.ar        1 KAF      -0.0407
     23 CAO        45.1572   41.7006   48.2387 C.ar        1 KAF      -0.0603
     24 CAI        44.9788   40.2984   48.2273 C.ar        1 KAF      -0.0686
     25 CAG        43.9048   39.7187   48.9175 C.ar        1 KAF      -0.0687
     26 CAJ        43.0140   40.5291   49.6345 C.ar        1 KAF      -0.0686
     27 CAP        43.1854   41.9298   49.6352 C.ar        1 KAF      -0.0603
     28 NBA        46.3964   45.4613   48.9718 N.am        1 KAF      -0.2759
     29 CBE        47.3748   44.8640   49.6464 C.2         1 KAF       0.2055
     30 OAC        47.4938   43.6494   49.5468 O.2         1 KAF      -0.3846
     31 CBG        48.2755   45.6009   50.4327 C.ar        1 KAF       0.0499
     32 CAR        48.0457   46.9616   50.7656 C.ar        1 KAF      -0.0419
     33 CAL        48.9487   47.6857   51.5660 C.ar        1 KAF      -0.0562
     34 CAH        50.1180   47.0680   52.0409 C.ar        1 KAF      -0.0575
     35 CAK        50.3754   45.7251   51.7209 C.ar        1 KAF      -0.0562
     36 CAQ        49.4649   45.0015   50.9318 C.ar        1 KAF      -0.0419
     37 H1         47.9251   51.7818   39.9860 H           1 KAF       0.0557
     38 H2         46.6384   52.8126   38.2238 H           1 KAF       0.0599
     39 H3         44.2378   52.4728   38.0978 H           1 KAF       0.0559
     40 H4         43.1183   51.1134   39.7702 H           1 KAF       0.0599
     41 H5         44.3765   50.1126   41.5627 H           1 KAF       0.0557
     42 H6         46.6936   50.7229   42.9513 H           1 KAF       0.0467
     43 H7         48.1038   50.4464   41.9769 H           1 KAF       0.0467
     44 H8         46.0384   48.3028   41.5816 H           1 KAF       0.0749
     45 H9         47.2182   48.6872   44.2480 H           1 KAF       0.1876
     46 H10        44.1066   48.0195   45.6771 H           1 KAF       0.0504
     47 H11        45.6195   48.8291   45.9453 H           1 KAF       0.0504
     48 H12        46.6087   47.0023   46.8670 H           1 KAF       0.0342
     49 H13        46.0854   45.9179   45.5931 H           1 KAF       0.0342
     50 H14        43.0068   46.1242   46.3920 H           1 KAF       0.2128
     51 H15        43.5257   47.4635   47.6281 H           1 KAF       0.2128
     52 H16        45.8818   44.2002   47.4116 H           1 KAF       0.0632
     53 H17        43.3532   44.4197   48.7840 H           1 KAF       0.0450
     54 H18        44.5115   44.2811   50.0629 H           1 KAF       0.0450
     55 H19        45.9733   42.0668   47.7503 H           1 KAF       0.0557
     56 H20        45.6379   39.7065   47.7162 H           1 KAF       0.0599
     57 H21        43.7790   38.7039   48.9108 H           1 KAF       0.0559
     58 H22        42.2369   40.1152   50.1482 H           1 KAF       0.0599
     59 H23        42.5136   42.4999   50.1547 H           1 KAF       0.0557
     60 H24        46.3471   46.4239   49.0458 H           1 KAF       0.1852
     61 H25        47.2082   47.4516   50.4487 H           1 KAF       0.0669
     62 H26        48.7588   48.6631   51.8009 H           1 KAF       0.0629
     63 H27        50.7800   47.5953   52.6174 H           1 KAF       0.0653
     64 H28        51.2284   45.2742   52.0641 H           1 KAF       0.0629
     65 H29        49.6871   44.0268   50.7200 H           1 KAF       0.0669
@<TRIPOS>BOND
     1     1     2  ar
     2     1     6  ar
     3     2     3  ar
     4     3     4  ar
     5     4     5  ar
     6     5     6  ar
     7     6     7   1
     8     7     8   1
     9     8     9   1
    10     8    12   1
    11     9    10  ar
    12     9    11  ar
    13    12    13  am
    14    13    14   2
    15    13    15   1
    16    15    16   1
    17    16    17   1
    18    17    18   1
    19    17    19   1
    20    17    20   1
    21    20    21   1
    22    20    28   1
    23    21    22   1
    24    22    23  ar
    25    22    27  ar
    26    23    24  ar
    27    24    25  ar
    28    25    26  ar
    29    26    27  ar
    30    28    29  am
    31    29    30   2
    32    29    31   1
    33    31    32  ar
    34    31    36  ar
    35    32    33  ar
    36    33    34  ar
    37    34    35  ar
    38    35    36  ar
    39     1    37   1
    40     2    38   1
    41     3    39   1
    42     4    40   1
    43     5    41   1
    44     7    42   1
    45     7    43   1
    46     8    44   1
    47    12    45   1
    48    15    46   1
    49    15    47   1
    50    16    48   1
    51    16    49   1
    52    18    50   1
    53    19    51   1
    54    20    52   1
    55    21    53   1
    56    21    54   1
    57    23    55   1
    58    24    56   1
    59    25    57   1
    60    26    58   1
    61    27    59   1
    62    28    60   1
    63    32    61   1
    64    33    62   1
    65    34    63   1
    66    35    64   1
    67    36    65   1
@<TRIPOS>SUBSTRUCTURE
     1  KAF      1

