@<TRIPOS>MOLECULE
3bkk_ligand_024
    65    67
SMALL
GAST_HUCK
****
This file was generated by PARSER (from files_GN.cpp)

@<TRIPOS>ATOM
      1 CD1        46.2808   48.0402   39.1388 C.ar        1 KAF      -0.0602
      2 CE1        45.6943   47.7573   37.8914 C.ar        1 KAF      -0.0686
      3 CZ         44.2992   47.8272   37.7358 C.ar        1 KAF      -0.0687
      4 CE2        43.4928   48.1949   38.8280 C.ar        1 KAF      -0.0686
      5 CD2        44.0805   48.4807   40.0727 C.ar        1 KAF      -0.0602
      6 CG         45.4850   48.4027   40.2552 C.ar        1 KAF      -0.0392
      7 CB         46.0980   48.7002   41.5852 C.3         1 KAF       0.0159
      8 CA         46.7652   47.4645   42.2741 C.3         1 KAF       0.1038
      9 C          48.1486   47.1723   41.8297 C.2         1 KAF       0.0621
     10 O          48.9473   48.1059   41.2578 O.co2       1 KAF      -0.5664
     11 OXT        48.7158   45.9969   42.1832 O.co2       1 KAF      -0.5664
     12 N          46.7895   47.6457   43.7057 N.am        1 KAF      -0.2696
     13 CBC        46.1735   46.8984   44.6171 C.2         1 KAF       0.1780
     14 OAA        45.5190   45.9111   44.2976 O.2         1 KAF      -0.3970
     15 CAV        46.2709   47.1989   46.0382 C.3         1 KAF       0.0423
     16 CAW        47.1897   46.1816   46.7766 C.3         1 KAF       0.0204
     17 CBM        47.3111   46.3370   48.3261 C.3         1 KAF       0.1919
     18 OAE        46.0256   46.1524   48.9174 O.3         1 KAF      -0.3627
     19 OAF        47.7311   47.6667   48.6361 O.3         1 KAF      -0.3627
     20 CBL        48.3639   45.3393   48.9432 C.3         1 KAF       0.1045
     21 CAX        48.0605   43.8089   48.8260 C.3         1 KAF       0.0090
     22 CBF        46.8240   43.2904   49.4796 C.ar        1 KAF      -0.0407
     23 CAO        45.6405   43.0733   48.7329 C.ar        1 KAF      -0.0603
     24 CAI        44.4892   42.5363   49.3408 C.ar        1 KAF      -0.0686
     25 CAG        44.5101   42.1941   50.7072 C.ar        1 KAF      -0.0687
     26 CAJ        45.6851   42.3828   51.4567 C.ar        1 KAF      -0.0686
     27 CAP        46.8337   42.9268   50.8471 C.ar        1 KAF      -0.0603
     28 NBA        48.8600   45.6942   50.2486 N.am        1 KAF      -0.2759
     29 CBE        48.2124   45.9244   51.3868 C.2         1 KAF       0.2055
     30 OAC        46.9880   45.8625   51.4052 O.2         1 KAF      -0.3846
     31 CBG        48.9066   46.2517   52.5630 C.ar        1 KAF       0.0499
     32 CAR        50.3051   46.0304   52.6977 C.ar        1 KAF      -0.0419
     33 CAL        50.9856   46.3561   53.8866 C.ar        1 KAF      -0.0562
     34 CAH        50.2896   46.9100   54.9719 C.ar        1 KAF      -0.0575
     35 CAK        48.9061   47.1313   54.8668 C.ar        1 KAF      -0.0562
     36 CAQ        48.2248   46.8049   53.6802 C.ar        1 KAF      -0.0419
     37 H1         47.2961   47.9811   39.2225 H           1 KAF       0.0557
     38 H2         46.2815   47.4977   37.0946 H           1 KAF       0.0599
     39 H3         43.8741   47.6138   36.8304 H           1 KAF       0.0559
     40 H4         42.4784   48.2574   38.7141 H           1 KAF       0.0599
     41 H5         43.4716   48.7454   40.8510 H           1 KAF       0.0557
     42 H6         45.3238   49.0811   42.2591 H           1 KAF       0.0467
     43 H7         46.8159   49.5155   41.4700 H           1 KAF       0.0467
     44 H8         46.1633   46.5875   42.0121 H           1 KAF       0.0749
     45 H9         47.3083   48.3954   44.0417 H           1 KAF       0.1876
     46 H10        45.2671   47.1750   46.4707 H           1 KAF       0.0504
     47 H11        46.6591   48.2089   46.1840 H           1 KAF       0.0504
     48 H12        48.1911   46.2582   46.3386 H           1 KAF       0.0342
     49 H13        46.8101   45.1783   46.5767 H           1 KAF       0.0342
     50 H14        45.4925   46.9259   48.6422 H           1 KAF       0.2128
     51 H15        46.9625   48.2392   48.4322 H           1 KAF       0.2128
     52 H16        49.2620   45.4694   48.3306 H           1 KAF       0.0632
     53 H17        48.9163   43.2579   49.2287 H           1 KAF       0.0450
     54 H18        48.0407   43.5444   47.7658 H           1 KAF       0.0450
     55 H19        45.6075   43.2952   47.7330 H           1 KAF       0.0557
     56 H20        43.6407   42.3826   48.7922 H           1 KAF       0.0599
     57 H21        43.6726   41.8004   51.1484 H           1 KAF       0.0559
     58 H22        45.7028   42.1243   52.4466 H           1 KAF       0.0599
     59 H23        47.6794   43.0372   51.4098 H           1 KAF       0.0557
     60 H24        49.8212   45.8130   50.2936 H           1 KAF       0.1852
     61 H25        50.8543   45.6128   51.9437 H           1 KAF       0.0669
     62 H26        51.9891   46.1787   53.9677 H           1 KAF       0.0629
     63 H27        50.7775   47.1411   55.8393 H           1 KAF       0.0653
     64 H28        48.3907   47.5265   55.6554 H           1 KAF       0.0629
     65 H29        47.2191   46.9892   53.6430 H           1 KAF       0.0669
@<TRIPOS>BOND
     1     1     2  ar
     2     1     6  ar
     3     2     3  ar
     4     3     4  ar
     5     4     5  ar
     6     5     6  ar
     7     6     7   1
     8     7     8   1
     9     8     9   1
    10     8    12   1
    11     9    10  ar
    12     9    11  ar
    13    12    13  am
    14    13    14   2
    15    13    15   1
    16    15    16   1
    17    16    17   1
    18    17    18   1
    19    17    19   1
    20    17    20   1
    21    20    21   1
    22    20    28   1
    23    21    22   1
    24    22    23  ar
    25    22    27  ar
    26    23    24  ar
    27    24    25  ar
    28    25    26  ar
    29    26    27  ar
    30    28    29  am
    31    29    30   2
    32    29    31   1
    33    31    32  ar
    34    31    36  ar
    35    32    33  ar
    36    33    34  ar
    37    34    35  ar
    38    35    36  ar
    39     1    37   1
    40     2    38   1
    41     3    39   1
    42     4    40   1
    43     5    41   1
    44     7    42   1
    45     7    43   1
    46     8    44   1
    47    12    45   1
    48    15    46   1
    49    15    47   1
    50    16    48   1
    51    16    49   1
    52    18    50   1
    53    19    51   1
    54    20    52   1
    55    21    53   1
    56    21    54   1
    57    23    55   1
    58    24    56   1
    59    25    57   1
    60    26    58   1
    61    27    59   1
    62    28    60   1
    63    32    61   1
    64    33    62   1
    65    34    63   1
    66    35    64   1
    67    36    65   1
@<TRIPOS>SUBSTRUCTURE
     1  KAF      1

