@<TRIPOS>MOLECULE
3bkk_ligand_018
    65    67
SMALL
GAST_HUCK
****
This file was generated by PARSER (from files_GN.cpp)

@<TRIPOS>ATOM
      1 CD1        45.9126   50.9694   43.4897 C.ar        1 KAF      -0.0602
      2 CE1        46.3095   52.1421   44.1565 C.ar        1 KAF      -0.0686
      3 CZ         47.4383   52.8535   43.7149 C.ar        1 KAF      -0.0687
      4 CE2        48.1765   52.3838   42.6136 C.ar        1 KAF      -0.0686
      5 CD2        47.7768   51.2113   41.9446 C.ar        1 KAF      -0.0602
      6 CG         46.6371   50.4884   42.3711 C.ar        1 KAF      -0.0392
      7 CB         46.1817   49.2569   41.6597 C.3         1 KAF       0.0159
      8 CA         46.7363   47.9068   42.2149 C.3         1 KAF       0.1038
      9 C          48.0961   47.5348   41.7637 C.2         1 KAF       0.0621
     10 O          48.8580   48.3526   41.0053 O.co2       1 KAF      -0.5664
     11 OXT        48.5661   46.2897   42.0069 O.co2       1 KAF      -0.5664
     12 N          46.7386   47.9077   43.6508 N.am        1 KAF      -0.2696
     13 CBC        46.1058   47.0785   44.4711 C.2         1 KAF       0.1780
     14 OAA        45.3583   46.2133   44.0347 O.2         1 KAF      -0.3970
     15 CAV        46.4182   47.1739   45.8900 C.3         1 KAF       0.0423
     16 CAW        45.6550   46.2271   46.8736 C.3         1 KAF       0.0204
     17 CBM        46.4613   45.6474   48.1037 C.3         1 KAF       0.1919
     18 OAE        46.1813   46.4221   49.2738 O.3         1 KAF      -0.3627
     19 OAF        47.8794   45.7530   47.9293 O.3         1 KAF      -0.3627
     20 CBL        46.1292   44.1334   48.3756 C.3         1 KAF       0.1045
     21 CAX        44.6689   43.9011   48.8831 C.3         1 KAF       0.0090
     22 CBF        44.1908   42.5014   49.0907 C.ar        1 KAF      -0.0407
     23 CAO        43.0256   42.2957   49.8689 C.ar        1 KAF      -0.0603
     24 CAI        42.5337   41.0022   50.1118 C.ar        1 KAF      -0.0686
     25 CAG        43.1972   39.8889   49.5725 C.ar        1 KAF      -0.0687
     26 CAJ        44.3269   40.0707   48.7577 C.ar        1 KAF      -0.0686
     27 CAP        44.8167   41.3675   48.5128 C.ar        1 KAF      -0.0603
     28 NBA        47.1215   43.4385   49.1531 N.am        1 KAF      -0.2759
     29 CBE        47.6846   43.7374   50.3174 C.2         1 KAF       0.2055
     30 OAC        47.3437   44.7576   50.9033 O.2         1 KAF      -0.3846
     31 CBG        48.6107   42.8556   50.8955 C.ar        1 KAF       0.0499
     32 CAR        49.2895   41.8728   50.1223 C.ar        1 KAF      -0.0419
     33 CAL        50.1720   40.9508   50.7137 C.ar        1 KAF      -0.0562
     34 CAH        50.4049   40.9919   52.0973 C.ar        1 KAF      -0.0575
     35 CAK        49.7685   41.9669   52.8829 C.ar        1 KAF      -0.0562
     36 CAQ        48.8885   42.8914   52.2875 C.ar        1 KAF      -0.0419
     37 H1         45.0843   50.4692   43.8230 H           1 KAF       0.0557
     38 H2         45.7758   52.4780   44.9600 H           1 KAF       0.0599
     39 H3         47.7258   53.7077   44.1979 H           1 KAF       0.0559
     40 H4         49.0051   52.8941   42.2994 H           1 KAF       0.0599
     41 H5         48.3216   50.8938   41.1404 H           1 KAF       0.0557
     42 H6         46.4140   49.3340   40.5936 H           1 KAF       0.0467
     43 H7         45.0894   49.2152   41.7152 H           1 KAF       0.0467
     44 H8         46.0858   47.1197   41.8245 H           1 KAF       0.0749
     45 H9         47.2974   48.5832   44.0733 H           1 KAF       0.1876
     46 H10        46.2520   48.2044   46.2137 H           1 KAF       0.0504
     47 H11        47.4868   46.9733   45.9478 H           1 KAF       0.0504
     48 H12        45.2543   45.3976   46.2885 H           1 KAF       0.0342
     49 H13        44.7794   46.7664   47.2500 H           1 KAF       0.0342
     50 H14        46.0814   47.3506   48.9732 H           1 KAF       0.2128
     51 H15        48.1163   46.6739   48.1865 H           1 KAF       0.2128
     52 H16        46.2026   43.6361   47.4062 H           1 KAF       0.0632
     53 H17        43.9784   44.3705   48.1794 H           1 KAF       0.0450
     54 H18        44.5684   44.4383   49.8290 H           1 KAF       0.0450
     55 H19        42.5295   43.0929   50.2746 H           1 KAF       0.0557
     56 H20        41.7005   40.8735   50.6886 H           1 KAF       0.0599
     57 H21        42.8584   38.9487   49.7740 H           1 KAF       0.0559
     58 H22        44.7946   39.2577   48.3509 H           1 KAF       0.0599
     59 H23        45.6378   41.4690   47.9140 H           1 KAF       0.0557
     60 H24        47.4004   42.5927   48.7702 H           1 KAF       0.1852
     61 H25        49.1585   41.8142   49.1097 H           1 KAF       0.0669
     62 H26        50.6413   40.2487   50.1363 H           1 KAF       0.0629
     63 H27        51.0355   40.3146   52.5304 H           1 KAF       0.0653
     64 H28        49.9411   42.0003   53.8901 H           1 KAF       0.0629
     65 H29        48.4298   43.5766   52.8930 H           1 KAF       0.0669
@<TRIPOS>BOND
     1     1     2  ar
     2     1     6  ar
     3     2     3  ar
     4     3     4  ar
     5     4     5  ar
     6     5     6  ar
     7     6     7   1
     8     7     8   1
     9     8     9   1
    10     8    12   1
    11     9    10  ar
    12     9    11  ar
    13    12    13  am
    14    13    14   2
    15    13    15   1
    16    15    16   1
    17    16    17   1
    18    17    18   1
    19    17    19   1
    20    17    20   1
    21    20    21   1
    22    20    28   1
    23    21    22   1
    24    22    23  ar
    25    22    27  ar
    26    23    24  ar
    27    24    25  ar
    28    25    26  ar
    29    26    27  ar
    30    28    29  am
    31    29    30   2
    32    29    31   1
    33    31    32  ar
    34    31    36  ar
    35    32    33  ar
    36    33    34  ar
    37    34    35  ar
    38    35    36  ar
    39     1    37   1
    40     2    38   1
    41     3    39   1
    42     4    40   1
    43     5    41   1
    44     7    42   1
    45     7    43   1
    46     8    44   1
    47    12    45   1
    48    15    46   1
    49    15    47   1
    50    16    48   1
    51    16    49   1
    52    18    50   1
    53    19    51   1
    54    20    52   1
    55    21    53   1
    56    21    54   1
    57    23    55   1
    58    24    56   1
    59    25    57   1
    60    26    58   1
    61    27    59   1
    62    28    60   1
    63    32    61   1
    64    33    62   1
    65    34    63   1
    66    35    64   1
    67    36    65   1
@<TRIPOS>SUBSTRUCTURE
     1  KAF      1

