@<TRIPOS>MOLECULE
3bkk_ligand_034
    65    67
SMALL
GAST_HUCK
****
This file was generated by PARSER (from files_GN.cpp)

@<TRIPOS>ATOM
      1 CD1        46.0481   45.8418   40.0099 C.ar        1 KAF      -0.0602
      2 CE1        45.6204   44.7397   39.2447 C.ar        1 KAF      -0.0686
      3 CZ         44.3348   44.2042   39.4407 C.ar        1 KAF      -0.0687
      4 CE2        43.4778   44.7779   40.3937 C.ar        1 KAF      -0.0686
      5 CD2        43.9168   45.8591   41.1799 C.ar        1 KAF      -0.0602
      6 CG         45.2147   46.4018   41.0078 C.ar        1 KAF      -0.0392
      7 CB         45.6666   47.5877   41.7898 C.3         1 KAF       0.0159
      8 CA         47.0222   47.4077   42.5704 C.3         1 KAF       0.1038
      9 C          47.9947   48.4476   42.1816 C.2         1 KAF       0.0621
     10 O          47.7317   49.7511   42.4386 O.co2       1 KAF      -0.5664
     11 OXT        48.9972   48.1591   41.3172 O.co2       1 KAF      -0.5664
     12 N          46.8775   47.4509   44.0030 N.am        1 KAF      -0.2696
     13 CBC        46.3341   46.5166   44.7728 C.2         1 KAF       0.1780
     14 OAA        45.8168   45.5186   44.2690 O.2         1 KAF      -0.3970
     15 CAV        46.2107   46.7229   46.2098 C.3         1 KAF       0.0423
     16 CAW        47.5478   46.9535   46.9785 C.3         1 KAF       0.0204
     17 CBM        48.3589   45.7013   47.4849 C.3         1 KAF       0.1919
     18 OAE        49.7486   46.0416   47.3931 O.3         1 KAF      -0.3627
     19 OAF        48.1853   44.6113   46.5880 O.3         1 KAF      -0.3627
     20 CBL        48.1185   45.2172   48.9621 C.3         1 KAF       0.1045
     21 CAX        46.6887   44.6860   49.3129 C.3         1 KAF       0.0090
     22 CBF        46.5052   43.2120   49.1953 C.ar        1 KAF      -0.0407
     23 CAO        47.2485   42.3237   50.0125 C.ar        1 KAF      -0.0603
     24 CAI        47.0146   40.9344   49.9742 C.ar        1 KAF      -0.0686
     25 CAG        46.0139   40.4129   49.1259 C.ar        1 KAF      -0.0687
     26 CAJ        45.2619   41.2847   48.3204 C.ar        1 KAF      -0.0686
     27 CAP        45.5074   42.6683   48.3471 C.ar        1 KAF      -0.0603
     28 NBA        48.4312   46.2938   49.8671 N.am        1 KAF      -0.2759
     29 CBE        49.2848   46.2824   50.8887 C.2         1 KAF       0.2055
     30 OAC        49.9465   45.2739   51.0933 O.2         1 KAF      -0.3846
     31 CBG        49.4320   47.3941   51.7348 C.ar        1 KAF       0.0499
     32 CAR        48.5787   48.5279   51.6501 C.ar        1 KAF      -0.0419
     33 CAL        48.7644   49.6455   52.4859 C.ar        1 KAF      -0.0562
     34 CAH        49.8032   49.6521   53.4273 C.ar        1 KAF      -0.0575
     35 CAK        50.6419   48.5332   53.5565 C.ar        1 KAF      -0.0562
     36 CAQ        50.4586   47.4206   52.7181 C.ar        1 KAF      -0.0419
     37 H1         46.9779   46.2304   39.8341 H           1 KAF       0.0557
     38 H2         46.2398   44.3293   38.5422 H           1 KAF       0.0599
     39 H3         44.0205   43.4061   38.8853 H           1 KAF       0.0559
     40 H4         42.5298   44.4077   40.5064 H           1 KAF       0.0599
     41 H5         43.2714   46.2637   41.8631 H           1 KAF       0.0557
     42 H6         44.8895   47.8915   42.4967 H           1 KAF       0.0467
     43 H7         45.7393   48.4070   41.0664 H           1 KAF       0.0467
     44 H8         47.4738   46.4394   42.3278 H           1 KAF       0.0749
     45 H9         47.2547   48.2251   44.4583 H           1 KAF       0.1876
     46 H10        45.6755   45.8863   46.6748 H           1 KAF       0.0504
     47 H11        45.5814   47.6118   46.3453 H           1 KAF       0.0504
     48 H12        47.3284   47.5844   47.8394 H           1 KAF       0.0342
     49 H13        48.2003   47.5477   46.3373 H           1 KAF       0.0342
     50 H14        50.2397   45.2360   47.6563 H           1 KAF       0.2128
     51 H15        48.5925   44.9322   45.7549 H           1 KAF       0.2128
     52 H16        48.8250   44.3962   49.1180 H           1 KAF       0.0632
     53 H17        45.9515   45.2249   48.7046 H           1 KAF       0.0450
     54 H18        46.4515   44.9282   50.3575 H           1 KAF       0.0450
     55 H19        47.9603   42.6835   50.6563 H           1 KAF       0.0557
     56 H20        47.5565   40.3013   50.5695 H           1 KAF       0.0599
     57 H21        45.8332   39.4098   49.1076 H           1 KAF       0.0559
     58 H22        44.5262   40.9068   47.7166 H           1 KAF       0.0599
     59 H23        44.9367   43.2816   47.7611 H           1 KAF       0.0557
     60 H24        47.9181   47.1063   49.7484 H           1 KAF       0.1852
     61 H25        47.8062   48.5661   50.9827 H           1 KAF       0.0669
     62 H26        48.1390   50.4499   52.4045 H           1 KAF       0.0629
     63 H27        49.9507   50.4666   54.0257 H           1 KAF       0.0653
     64 H28        51.3869   48.5308   54.2543 H           1 KAF       0.0629
     65 H29        51.0981   46.6313   52.8326 H           1 KAF       0.0669
@<TRIPOS>BOND
     1     1     2  ar
     2     1     6  ar
     3     2     3  ar
     4     3     4  ar
     5     4     5  ar
     6     5     6  ar
     7     6     7   1
     8     7     8   1
     9     8     9   1
    10     8    12   1
    11     9    10  ar
    12     9    11  ar
    13    12    13  am
    14    13    14   2
    15    13    15   1
    16    15    16   1
    17    16    17   1
    18    17    18   1
    19    17    19   1
    20    17    20   1
    21    20    21   1
    22    20    28   1
    23    21    22   1
    24    22    23  ar
    25    22    27  ar
    26    23    24  ar
    27    24    25  ar
    28    25    26  ar
    29    26    27  ar
    30    28    29  am
    31    29    30   2
    32    29    31   1
    33    31    32  ar
    34    31    36  ar
    35    32    33  ar
    36    33    34  ar
    37    34    35  ar
    38    35    36  ar
    39     1    37   1
    40     2    38   1
    41     3    39   1
    42     4    40   1
    43     5    41   1
    44     7    42   1
    45     7    43   1
    46     8    44   1
    47    12    45   1
    48    15    46   1
    49    15    47   1
    50    16    48   1
    51    16    49   1
    52    18    50   1
    53    19    51   1
    54    20    52   1
    55    21    53   1
    56    21    54   1
    57    23    55   1
    58    24    56   1
    59    25    57   1
    60    26    58   1
    61    27    59   1
    62    28    60   1
    63    32    61   1
    64    33    62   1
    65    34    63   1
    66    35    64   1
    67    36    65   1
@<TRIPOS>SUBSTRUCTURE
     1  KAF      1

