@<TRIPOS>MOLECULE
3bkk_ligand_020
    65    67
SMALL
GAST_HUCK
****
This file was generated by PARSER (from files_GN.cpp)

@<TRIPOS>ATOM
      1 CD1        46.1497   35.9466   50.1396 C.ar        1 KAF      -0.0602
      2 CE1        46.0056   34.6756   49.5507 C.ar        1 KAF      -0.0686
      3 CZ         45.3408   34.5379   48.3182 C.ar        1 KAF      -0.0687
      4 CE2        44.8034   35.6704   47.6823 C.ar        1 KAF      -0.0686
      5 CD2        44.9491   36.9404   48.2699 C.ar        1 KAF      -0.0602
      6 CG         45.6271   37.0966   49.5022 C.ar        1 KAF      -0.0392
      7 CB         45.7832   38.4570   50.0884 C.3         1 KAF       0.0159
      8 CA         44.4636   39.0108   50.7302 C.3         1 KAF       0.1038
      9 C          44.3363   38.6525   52.1573 C.2         1 KAF       0.0621
     10 O          43.1287   38.7188   52.7652 O.co2       1 KAF      -0.5664
     11 OXT        45.4235   38.6608   52.9669 O.co2       1 KAF      -0.5664
     12 N          44.3604   40.4364   50.5919 N.am        1 KAF      -0.2696
     13 CBC        44.1956   41.0873   49.4409 C.2         1 KAF       0.1780
     14 OAA        44.1480   40.4727   48.3812 O.2         1 KAF      -0.3970
     15 CAV        43.9832   42.5238   49.4036 C.3         1 KAF       0.0423
     16 CAW        44.7595   43.2419   48.2564 C.3         1 KAF       0.0204
     17 CBM        44.4401   44.7715   48.0824 C.3         1 KAF       0.1919
     18 OAE        43.7631   45.3038   49.2189 O.3         1 KAF      -0.3627
     19 OAF        43.4812   44.8657   47.0149 O.3         1 KAF      -0.3627
     20 CBL        45.7157   45.6428   47.7456 C.3         1 KAF       0.1045
     21 CAX        46.4960   46.1574   49.0035 C.3         1 KAF       0.0090
     22 CBF        47.0477   45.1029   49.9015 C.ar        1 KAF      -0.0407
     23 CAO        46.3098   44.6243   51.0105 C.ar        1 KAF      -0.0603
     24 CAI        46.8081   43.5830   51.8158 C.ar        1 KAF      -0.0686
     25 CAG        48.0700   43.0272   51.5436 C.ar        1 KAF      -0.0687
     26 CAJ        48.8285   43.5081   50.4611 C.ar        1 KAF      -0.0686
     27 CAP        48.3190   44.5336   49.6420 C.ar        1 KAF      -0.0603
     28 NBA        45.4016   46.8052   46.9511 N.am        1 KAF      -0.2759
     29 CBE        44.8897   46.8398   45.7240 C.2         1 KAF       0.2055
     30 OAC        44.5615   45.7789   45.2084 O.2         1 KAF      -0.3846
     31 CBG        44.6574   48.0547   45.0578 C.ar        1 KAF       0.0499
     32 CAR        45.3238   49.2529   45.4272 C.ar        1 KAF      -0.0419
     33 CAL        45.0736   50.4687   44.7639 C.ar        1 KAF      -0.0562
     34 CAH        44.1394   50.5238   43.7179 C.ar        1 KAF      -0.0575
     35 CAK        43.4696   49.3522   43.3294 C.ar        1 KAF      -0.0562
     36 CAQ        43.7347   48.1329   43.9812 C.ar        1 KAF      -0.0419
     37 H1         46.6336   36.0276   51.0375 H           1 KAF       0.0557
     38 H2         46.3795   33.8502   50.0214 H           1 KAF       0.0599
     39 H3         45.2360   33.6157   47.8911 H           1 KAF       0.0559
     40 H4         44.3100   35.5720   46.7934 H           1 KAF       0.0599
     41 H5         44.5654   37.7558   47.7858 H           1 KAF       0.0557
     42 H6         46.1253   39.1193   49.2876 H           1 KAF       0.0467
     43 H7         46.5901   38.4655   50.8292 H           1 KAF       0.0467
     44 H8         43.5965   38.5694   50.2197 H           1 KAF       0.0749
     45 H9         44.3447   40.9630   51.4084 H           1 KAF       0.1876
     46 H10        44.2816   42.9700   50.3586 H           1 KAF       0.0504
     47 H11        42.9142   42.7072   49.2879 H           1 KAF       0.0504
     48 H12        44.5496   42.7384   47.3089 H           1 KAF       0.0342
     49 H13        45.8199   43.0849   48.4417 H           1 KAF       0.0342
     50 H14        43.1723   46.0059   48.8671 H           1 KAF       0.2128
     51 H15        42.9087   45.6409   47.2234 H           1 KAF       0.2128
     52 H16        46.4151   45.0371   47.1593 H           1 KAF       0.0632
     53 H17        45.8426   46.8167   49.5812 H           1 KAF       0.0450
     54 H18        47.3283   46.7883   48.6741 H           1 KAF       0.0450
     55 H19        45.3860   45.0082   51.2247 H           1 KAF       0.0557
     56 H20        46.2518   43.2275   52.5982 H           1 KAF       0.0599
     57 H21        48.4342   42.2720   52.1286 H           1 KAF       0.0559
     58 H22        49.7495   43.1075   50.2664 H           1 KAF       0.0599
     59 H23        48.8800   44.8599   48.8523 H           1 KAF       0.0557
     60 H24        45.6165   47.6610   47.3476 H           1 KAF       0.1852
     61 H25        46.0169   49.2543   46.1756 H           1 KAF       0.0669
     62 H26        45.5722   51.3133   45.0446 H           1 KAF       0.0629
     63 H27        43.9535   51.4084   43.2391 H           1 KAF       0.0653
     64 H28        42.7872   49.3933   42.5722 H           1 KAF       0.0629
     65 H29        43.2232   47.3031   43.6668 H           1 KAF       0.0669
@<TRIPOS>BOND
     1     1     2  ar
     2     1     6  ar
     3     2     3  ar
     4     3     4  ar
     5     4     5  ar
     6     5     6  ar
     7     6     7   1
     8     7     8   1
     9     8     9   1
    10     8    12   1
    11     9    10  ar
    12     9    11  ar
    13    12    13  am
    14    13    14   2
    15    13    15   1
    16    15    16   1
    17    16    17   1
    18    17    18   1
    19    17    19   1
    20    17    20   1
    21    20    21   1
    22    20    28   1
    23    21    22   1
    24    22    23  ar
    25    22    27  ar
    26    23    24  ar
    27    24    25  ar
    28    25    26  ar
    29    26    27  ar
    30    28    29  am
    31    29    30   2
    32    29    31   1
    33    31    32  ar
    34    31    36  ar
    35    32    33  ar
    36    33    34  ar
    37    34    35  ar
    38    35    36  ar
    39     1    37   1
    40     2    38   1
    41     3    39   1
    42     4    40   1
    43     5    41   1
    44     7    42   1
    45     7    43   1
    46     8    44   1
    47    12    45   1
    48    15    46   1
    49    15    47   1
    50    16    48   1
    51    16    49   1
    52    18    50   1
    53    19    51   1
    54    20    52   1
    55    21    53   1
    56    21    54   1
    57    23    55   1
    58    24    56   1
    59    25    57   1
    60    26    58   1
    61    27    59   1
    62    28    60   1
    63    32    61   1
    64    33    62   1
    65    34    63   1
    66    35    64   1
    67    36    65   1
@<TRIPOS>SUBSTRUCTURE
     1  KAF      1

