@<TRIPOS>MOLECULE
3bkk_ligand_016
    65    67
SMALL
GAST_HUCK
****
This file was generated by PARSER (from files_GN.cpp)

@<TRIPOS>ATOM
      1 CD1        45.2935   38.1657   51.0714 C.ar        1 KAF      -0.0602
      2 CE1        44.9990   36.8995   50.5244 C.ar        1 KAF      -0.0686
      3 CZ         44.1117   36.0317   51.1966 C.ar        1 KAF      -0.0687
      4 CE2        43.5143   36.4368   52.3994 C.ar        1 KAF      -0.0686
      5 CD2        43.8004   37.7070   52.9380 C.ar        1 KAF      -0.0602
      6 CG         44.7051   38.5812   52.2847 C.ar        1 KAF      -0.0392
      7 CB         45.0351   39.8934   52.9014 C.3         1 KAF       0.0159
      8 CA         43.8173   40.8798   52.9337 C.3         1 KAF       0.1038
      9 C          43.9990   41.9304   53.9636 C.2         1 KAF       0.0621
     10 O          45.0115   42.8279   53.8990 O.co2       1 KAF      -0.5664
     11 OXT        43.2045   41.9599   55.0567 O.co2       1 KAF      -0.5664
     12 N          43.4535   41.4067   51.6403 N.am        1 KAF      -0.2696
     13 CBC        44.1582   42.1923   50.8258 C.2         1 KAF       0.1780
     14 OAA        45.2917   42.5272   51.1236 O.2         1 KAF      -0.3970
     15 CAV        43.6157   42.5582   49.5164 C.3         1 KAF       0.0423
     16 CAW        44.5866   43.2497   48.4933 C.3         1 KAF       0.0204
     17 CBM        44.3447   44.7665   48.1817 C.3         1 KAF       0.1919
     18 OAE        43.7167   45.4379   49.2748 O.3         1 KAF      -0.3627
     19 OAF        43.3949   44.8041   47.0945 O.3         1 KAF      -0.3627
     20 CBL        45.6470   45.5426   47.7342 C.3         1 KAF       0.1045
     21 CAX        46.6142   45.9782   48.8928 C.3         1 KAF       0.0090
     22 CBF        47.3317   44.9238   49.6659 C.ar        1 KAF      -0.0407
     23 CAO        47.4003   44.9770   51.0791 C.ar        1 KAF      -0.0603
     24 CAI        48.1543   44.0384   51.8078 C.ar        1 KAF      -0.0686
     25 CAG        48.8333   43.0069   51.1333 C.ar        1 KAF      -0.0687
     26 CAJ        48.7877   42.9402   49.7295 C.ar        1 KAF      -0.0686
     27 CAP        48.0650   43.9090   48.9990 C.ar        1 KAF      -0.0603
     28 NBA        45.3365   46.7488   47.0077 N.am        1 KAF      -0.2759
     29 CBE        44.8127   46.8533   45.7873 C.2         1 KAF       0.2055
     30 OAC        44.4141   45.8274   45.2407 O.2         1 KAF      -0.3846
     31 CBG        44.7311   48.0969   45.1310 C.ar        1 KAF       0.0499
     32 CAR        45.4638   49.2356   45.5716 C.ar        1 KAF      -0.0419
     33 CAL        45.3810   50.4695   44.8900 C.ar        1 KAF      -0.0562
     34 CAH        44.5561   50.5973   43.7605 C.ar        1 KAF      -0.0575
     35 CAK        43.8183   49.4912   43.3149 C.ar        1 KAF      -0.0562
     36 CAQ        43.9137   48.2623   43.9838 C.ar        1 KAF      -0.0419
     37 H1         45.9436   38.7773   50.5728 H           1 KAF       0.0557
     38 H2         45.4319   36.6047   49.6498 H           1 KAF       0.0599
     39 H3         43.9090   35.1093   50.8061 H           1 KAF       0.0559
     40 H4         42.8758   35.8073   52.8921 H           1 KAF       0.0599
     41 H5         43.3574   37.9821   53.8156 H           1 KAF       0.0557
     42 H6         45.8793   40.3589   52.3798 H           1 KAF       0.0467
     43 H7         45.3896   39.7043   53.9203 H           1 KAF       0.0467
     44 H8         42.9549   40.3001   53.2611 H           1 KAF       0.0749
     45 H9         42.5710   41.1524   51.3208 H           1 KAF       0.1876
     46 H10        42.7373   43.1952   49.6697 H           1 KAF       0.0504
     47 H11        43.2455   41.6266   49.0691 H           1 KAF       0.0504
     48 H12        44.5192   42.6971   47.5496 H           1 KAF       0.0342
     49 H13        45.6094   43.0962   48.8148 H           1 KAF       0.0342
     50 H14        43.1347   46.1158   48.8518 H           1 KAF       0.2128
     51 H15        42.7815   45.5577   47.2867 H           1 KAF       0.2128
     52 H16        46.2170   44.8995   47.0570 H           1 KAF       0.0632
     53 H17        46.0473   46.6212   49.5789 H           1 KAF       0.0450
     54 H18        47.3970   46.6120   48.4693 H           1 KAF       0.0450
     55 H19        46.9257   45.7244   51.5941 H           1 KAF       0.0557
     56 H20        48.2133   44.1057   52.8254 H           1 KAF       0.0599
     57 H21        49.3628   42.3114   51.6617 H           1 KAF       0.0559
     58 H22        49.2862   42.1971   49.2394 H           1 KAF       0.0599
     59 H23        48.0734   43.8599   47.9782 H           1 KAF       0.0557
     60 H24        45.6071   47.5786   47.4320 H           1 KAF       0.1852
     61 H25        46.0797   49.1854   46.3740 H           1 KAF       0.0669
     62 H26        45.9254   51.2681   45.2167 H           1 KAF       0.0629
     63 H27        44.5005   51.4922   43.2650 H           1 KAF       0.0653
     64 H28        43.2142   49.5885   42.4972 H           1 KAF       0.0629
     65 H29        43.3583   47.4776   43.6233 H           1 KAF       0.0669
@<TRIPOS>BOND
     1     1     2  ar
     2     1     6  ar
     3     2     3  ar
     4     3     4  ar
     5     4     5  ar
     6     5     6  ar
     7     6     7   1
     8     7     8   1
     9     8     9   1
    10     8    12   1
    11     9    10  ar
    12     9    11  ar
    13    12    13  am
    14    13    14   2
    15    13    15   1
    16    15    16   1
    17    16    17   1
    18    17    18   1
    19    17    19   1
    20    17    20   1
    21    20    21   1
    22    20    28   1
    23    21    22   1
    24    22    23  ar
    25    22    27  ar
    26    23    24  ar
    27    24    25  ar
    28    25    26  ar
    29    26    27  ar
    30    28    29  am
    31    29    30   2
    32    29    31   1
    33    31    32  ar
    34    31    36  ar
    35    32    33  ar
    36    33    34  ar
    37    34    35  ar
    38    35    36  ar
    39     1    37   1
    40     2    38   1
    41     3    39   1
    42     4    40   1
    43     5    41   1
    44     7    42   1
    45     7    43   1
    46     8    44   1
    47    12    45   1
    48    15    46   1
    49    15    47   1
    50    16    48   1
    51    16    49   1
    52    18    50   1
    53    19    51   1
    54    20    52   1
    55    21    53   1
    56    21    54   1
    57    23    55   1
    58    24    56   1
    59    25    57   1
    60    26    58   1
    61    27    59   1
    62    28    60   1
    63    32    61   1
    64    33    62   1
    65    34    63   1
    66    35    64   1
    67    36    65   1
@<TRIPOS>SUBSTRUCTURE
     1  KAF      1

