@<TRIPOS>MOLECULE
3bkk_ligand_030
    65    67
SMALL
GAST_HUCK
****
This file was generated by PARSER (from files_GN.cpp)

@<TRIPOS>ATOM
      1 CD1        44.2694   47.3594   42.6442 C.ar        1 KAF      -0.0602
      2 CE1        42.8930   47.6314   42.5969 C.ar        1 KAF      -0.0686
      3 CZ         42.3165   48.5119   43.5250 C.ar        1 KAF      -0.0687
      4 CE2        43.1137   49.1166   44.5117 C.ar        1 KAF      -0.0686
      5 CD2        44.4874   48.8167   44.5878 C.ar        1 KAF      -0.0602
      6 CG         45.0815   47.9357   43.6515 C.ar        1 KAF      -0.0392
      7 CB         46.5364   47.6226   43.6830 C.3         1 KAF       0.0159
      8 CA         47.4277   48.4279   42.6644 C.3         1 KAF       0.1038
      9 C          48.2834   47.6034   41.7890 C.2         1 KAF       0.0621
     10 O          48.6503   46.3400   42.1137 O.co2       1 KAF      -0.5664
     11 OXT        49.0533   48.2413   40.8830 O.co2       1 KAF      -0.5664
     12 N          46.6563   49.2849   41.8007 N.am        1 KAF      -0.2696
     13 CBC        46.7276   50.6081   41.7121 C.2         1 KAF       0.1780
     14 OAA        47.5280   51.2518   42.3799 O.2         1 KAF      -0.3970
     15 CAV        45.7767   51.3323   40.8859 C.3         1 KAF       0.0423
     16 CAW        46.1286   51.3272   39.3687 C.3         1 KAF       0.0204
     17 CBM        45.1055   52.0783   38.4339 C.3         1 KAF       0.1919
     18 OAE        45.8418   53.0540   37.6914 O.3         1 KAF      -0.3627
     19 OAF        44.1618   52.8279   39.2044 O.3         1 KAF      -0.3627
     20 CBL        44.3624   51.1587   37.3919 C.3         1 KAF       0.1045
     21 CAX        43.2317   51.8730   36.5595 C.3         1 KAF       0.0090
     22 CBF        42.1782   51.0054   35.9457 C.ar        1 KAF      -0.0407
     23 CAO        40.8059   51.3421   36.0551 C.ar        1 KAF      -0.0603
     24 CAI        39.8099   50.5092   35.5107 C.ar        1 KAF      -0.0686
     25 CAG        40.1686   49.3169   34.8582 C.ar        1 KAF      -0.0687
     26 CAJ        41.5257   48.9726   34.7276 C.ar        1 KAF      -0.0686
     27 CAP        42.5212   49.8214   35.2486 C.ar        1 KAF      -0.0603
     28 NBA        43.9805   49.8827   37.9224 N.am        1 KAF      -0.2759
     29 CBE        43.0122   49.5714   38.7709 C.2         1 KAF       0.2055
     30 OAC        42.3259   50.4659   39.2522 O.2         1 KAF      -0.3846
     31 CBG        42.7569   48.2327   39.0808 C.ar        1 KAF       0.0499
     32 CAR        43.7266   47.2151   38.8698 C.ar        1 KAF      -0.0419
     33 CAL        43.4799   45.8766   39.2250 C.ar        1 KAF      -0.0562
     34 CAH        42.2502   45.5203   39.7942 C.ar        1 KAF      -0.0575
     35 CAK        41.2578   46.4978   39.9769 C.ar        1 KAF      -0.0562
     36 CAQ        41.5116   47.8410   39.6353 C.ar        1 KAF      -0.0419
     37 H1         44.6779   46.7324   41.9443 H           1 KAF       0.0557
     38 H2         42.3117   47.1830   41.8927 H           1 KAF       0.0599
     39 H3         41.3098   48.7033   43.4833 H           1 KAF       0.0559
     40 H4         42.6939   49.7672   45.1811 H           1 KAF       0.0599
     41 H5         45.0520   49.2469   45.3265 H           1 KAF       0.0557
     42 H6         46.6360   46.5430   43.5274 H           1 KAF       0.0467
     43 H7         46.9175   47.8002   44.6947 H           1 KAF       0.0467
     44 H8         48.1255   49.0284   43.2596 H           1 KAF       0.0749
     45 H9         45.9725   48.8538   41.2626 H           1 KAF       0.1876
     46 H10        45.7281   52.3725   41.2314 H           1 KAF       0.0504
     47 H11        44.7797   50.9049   41.0296 H           1 KAF       0.0504
     48 H12        46.2300   50.2903   39.0455 H           1 KAF       0.0342
     49 H13        47.1224   51.7772   39.2613 H           1 KAF       0.0342
     50 H14        45.1763   53.6729   37.3293 H           1 KAF       0.2128
     51 H15        44.6526   53.6210   39.5062 H           1 KAF       0.2128
     52 H16        45.1320   50.8847   36.6597 H           1 KAF       0.0632
     53 H17        43.7019   52.4352   35.7488 H           1 KAF       0.0450
     54 H18        42.7461   52.6130   37.1971 H           1 KAF       0.0450
     55 H19        40.5161   52.1977   36.5350 H           1 KAF       0.0557
     56 H20        38.8241   50.7686   35.5932 H           1 KAF       0.0599
     57 H21        39.4452   48.7048   34.4753 H           1 KAF       0.0559
     58 H22        41.7868   48.1048   34.2537 H           1 KAF       0.0599
     59 H23        43.5007   49.5523   35.1416 H           1 KAF       0.0557
     60 H24        44.4742   49.1332   37.5578 H           1 KAF       0.1852
     61 H25        44.6406   47.4305   38.4603 H           1 KAF       0.0669
     62 H26        44.2004   45.1669   39.0737 H           1 KAF       0.0629
     63 H27        42.0778   44.5522   40.0666 H           1 KAF       0.0653
     64 H28        40.3516   46.2402   40.3728 H           1 KAF       0.0629
     65 H29        40.7640   48.5237   39.7873 H           1 KAF       0.0669
@<TRIPOS>BOND
     1     1     2  ar
     2     1     6  ar
     3     2     3  ar
     4     3     4  ar
     5     4     5  ar
     6     5     6  ar
     7     6     7   1
     8     7     8   1
     9     8     9   1
    10     8    12   1
    11     9    10  ar
    12     9    11  ar
    13    12    13  am
    14    13    14   2
    15    13    15   1
    16    15    16   1
    17    16    17   1
    18    17    18   1
    19    17    19   1
    20    17    20   1
    21    20    21   1
    22    20    28   1
    23    21    22   1
    24    22    23  ar
    25    22    27  ar
    26    23    24  ar
    27    24    25  ar
    28    25    26  ar
    29    26    27  ar
    30    28    29  am
    31    29    30   2
    32    29    31   1
    33    31    32  ar
    34    31    36  ar
    35    32    33  ar
    36    33    34  ar
    37    34    35  ar
    38    35    36  ar
    39     1    37   1
    40     2    38   1
    41     3    39   1
    42     4    40   1
    43     5    41   1
    44     7    42   1
    45     7    43   1
    46     8    44   1
    47    12    45   1
    48    15    46   1
    49    15    47   1
    50    16    48   1
    51    16    49   1
    52    18    50   1
    53    19    51   1
    54    20    52   1
    55    21    53   1
    56    21    54   1
    57    23    55   1
    58    24    56   1
    59    25    57   1
    60    26    58   1
    61    27    59   1
    62    28    60   1
    63    32    61   1
    64    33    62   1
    65    34    63   1
    66    35    64   1
    67    36    65   1
@<TRIPOS>SUBSTRUCTURE
     1  KAF      1

