@<TRIPOS>MOLECULE
3bkk_ligand_029
    65    67
SMALL
GAST_HUCK
****
This file was generated by PARSER (from files_GN.cpp)

@<TRIPOS>ATOM
      1 CD1        46.2915   40.3900   49.5556 C.ar        1 KAF      -0.0602
      2 CE1        45.6981   39.8908   48.3834 C.ar        1 KAF      -0.0686
      3 CZ         44.3317   39.5578   48.3769 C.ar        1 KAF      -0.0687
      4 CE2        43.5730   39.6830   49.5542 C.ar        1 KAF      -0.0686
      5 CD2        44.1653   40.1835   50.7272 C.ar        1 KAF      -0.0602
      6 CG         45.5327   40.5454   50.7403 C.ar        1 KAF      -0.0392
      7 CB         46.1215   41.2113   51.9355 C.3         1 KAF       0.0159
      8 CA         45.5079   42.6257   52.1925 C.3         1 KAF       0.1038
      9 C          46.3616   43.5069   53.0236 C.2         1 KAF       0.0621
     10 O          46.0219   44.8058   53.1950 O.co2       1 KAF      -0.5664
     11 OXT        47.4667   43.0590   53.6630 O.co2       1 KAF      -0.5664
     12 N          45.2907   43.2743   50.9285 N.am        1 KAF      -0.2696
     13 CBC        44.1661   43.2808   50.2151 C.2         1 KAF       0.1780
     14 OAA        43.1691   42.6916   50.6176 O.2         1 KAF      -0.3970
     15 CAV        44.0685   43.9410   48.9183 C.3         1 KAF       0.0423
     16 CAW        45.2844   44.8093   48.4791 C.3         1 KAF       0.0204
     17 CBM        44.9733   45.9486   47.4687 C.3         1 KAF       0.1919
     18 OAE        44.2898   46.9761   48.1932 O.3         1 KAF      -0.3627
     19 OAF        44.0409   45.4418   46.4974 O.3         1 KAF      -0.3627
     20 CBL        46.2292   46.5385   46.7159 C.3         1 KAF       0.1045
     21 CAX        47.4832   46.9915   47.5509 C.3         1 KAF       0.0090
     22 CBF        48.0272   46.0705   48.5923 C.ar        1 KAF      -0.0407
     23 CAO        48.1960   46.5114   49.9309 C.ar        1 KAF      -0.0603
     24 CAI        48.6026   45.6247   50.9446 C.ar        1 KAF      -0.0686
     25 CAG        48.8461   44.2766   50.6394 C.ar        1 KAF      -0.0687
     26 CAJ        48.7495   43.8373   49.3067 C.ar        1 KAF      -0.0686
     27 CAP        48.3538   44.7280   48.2885 C.ar        1 KAF      -0.0603
     28 NBA        45.8023   47.7302   46.0273 N.am        1 KAF      -0.2759
     29 CBE        45.5961   47.9491   44.7348 C.2         1 KAF       0.2055
     30 OAC        45.7754   47.0309   43.9430 O.2         1 KAF      -0.3846
     31 CBG        45.1081   49.1898   44.2907 C.ar        1 KAF       0.0499
     32 CAR        45.1333   50.3494   45.1154 C.ar        1 KAF      -0.0419
     33 CAL        44.6100   51.5785   44.6720 C.ar        1 KAF      -0.0562
     34 CAH        44.0540   51.6840   43.3879 C.ar        1 KAF      -0.0575
     35 CAK        44.0225   50.5594   42.5476 C.ar        1 KAF      -0.0562
     36 CAQ        44.5495   49.3313   42.9909 C.ar        1 KAF      -0.0419
     37 H1         47.2772   40.6590   49.5328 H           1 KAF       0.0557
     38 H2         46.2562   39.7894   47.5326 H           1 KAF       0.0599
     39 H3         43.8952   39.2201   47.5175 H           1 KAF       0.0559
     40 H4         42.5870   39.4229   49.5563 H           1 KAF       0.0599
     41 H5         43.5921   40.2909   51.5683 H           1 KAF       0.0557
     42 H6         47.2037   41.3162   51.8018 H           1 KAF       0.0467
     43 H7         45.9675   40.5727   52.8108 H           1 KAF       0.0467
     44 H8         44.5696   42.5032   52.7448 H           1 KAF       0.0749
     45 H9         46.0804   43.6538   50.5140 H           1 KAF       0.1876
     46 H10        43.1678   44.5647   48.9221 H           1 KAF       0.0504
     47 H11        43.9152   43.1620   48.1690 H           1 KAF       0.0504
     48 H12        46.0425   44.1502   48.0553 H           1 KAF       0.0342
     49 H13        45.6830   45.2779   49.3720 H           1 KAF       0.0342
     50 H14        43.7474   47.4488   47.5214 H           1 KAF       0.2128
     51 H15        43.4013   46.1780   46.3445 H           1 KAF       0.2128
     52 H16        46.5650   45.7802   46.0016 H           1 KAF       0.0632
     53 H17        47.2490   47.9505   48.0220 H           1 KAF       0.0450
     54 H18        48.3018   47.1857   46.8509 H           1 KAF       0.0450
     55 H19        48.0114   47.4845   50.1846 H           1 KAF       0.0557
     56 H20        48.6998   45.9560   51.9062 H           1 KAF       0.0599
     57 H21        49.1033   43.6264   51.3829 H           1 KAF       0.0559
     58 H22        48.9614   42.8660   49.0729 H           1 KAF       0.0599
     59 H23        48.2955   44.3891   47.3233 H           1 KAF       0.0557
     60 H24        45.6040   48.4747   46.6160 H           1 KAF       0.1852
     61 H25        45.5389   50.3233   46.0532 H           1 KAF       0.0669
     62 H26        44.6339   52.3969   45.2832 H           1 KAF       0.0629
     63 H27        43.6714   52.5761   43.0661 H           1 KAF       0.0653
     64 H28        43.6132   50.6331   41.6126 H           1 KAF       0.0629
     65 H29        44.4986   48.5319   42.3534 H           1 KAF       0.0669
@<TRIPOS>BOND
     1     1     2  ar
     2     1     6  ar
     3     2     3  ar
     4     3     4  ar
     5     4     5  ar
     6     5     6  ar
     7     6     7   1
     8     7     8   1
     9     8     9   1
    10     8    12   1
    11     9    10  ar
    12     9    11  ar
    13    12    13  am
    14    13    14   2
    15    13    15   1
    16    15    16   1
    17    16    17   1
    18    17    18   1
    19    17    19   1
    20    17    20   1
    21    20    21   1
    22    20    28   1
    23    21    22   1
    24    22    23  ar
    25    22    27  ar
    26    23    24  ar
    27    24    25  ar
    28    25    26  ar
    29    26    27  ar
    30    28    29  am
    31    29    30   2
    32    29    31   1
    33    31    32  ar
    34    31    36  ar
    35    32    33  ar
    36    33    34  ar
    37    34    35  ar
    38    35    36  ar
    39     1    37   1
    40     2    38   1
    41     3    39   1
    42     4    40   1
    43     5    41   1
    44     7    42   1
    45     7    43   1
    46     8    44   1
    47    12    45   1
    48    15    46   1
    49    15    47   1
    50    16    48   1
    51    16    49   1
    52    18    50   1
    53    19    51   1
    54    20    52   1
    55    21    53   1
    56    21    54   1
    57    23    55   1
    58    24    56   1
    59    25    57   1
    60    26    58   1
    61    27    59   1
    62    28    60   1
    63    32    61   1
    64    33    62   1
    65    34    63   1
    66    35    64   1
    67    36    65   1
@<TRIPOS>SUBSTRUCTURE
     1  KAF      1

