@<TRIPOS>MOLECULE
3bkk_ligand_010
    65    67
SMALL
GAST_HUCK
****
This file was generated by PARSER (from files_GN.cpp)

@<TRIPOS>ATOM
      1 CD1        44.1745   44.8463   39.9301 C.ar        1 KAF      -0.0602
      2 CE1        42.7701   44.8877   39.9996 C.ar        1 KAF      -0.0686
      3 CZ         42.0936   46.1089   39.8353 C.ar        1 KAF      -0.0687
      4 CE2        42.8230   47.2854   39.5890 C.ar        1 KAF      -0.0686
      5 CD2        44.2293   47.2416   39.5197 C.ar        1 KAF      -0.0602
      6 CG         44.9281   46.0258   39.7063 C.ar        1 KAF      -0.0392
      7 CB         46.4202   45.9955   39.7555 C.3         1 KAF       0.0159
      8 CA         47.0622   46.5610   41.0679 C.3         1 KAF       0.1038
      9 C          47.4566   47.9848   40.9083 C.2         1 KAF       0.0621
     10 O          48.7665   48.3223   40.8205 O.co2       1 KAF      -0.5664
     11 OXT        46.5728   48.9835   41.1366 O.co2       1 KAF      -0.5664
     12 N          46.2104   46.3329   42.2061 N.am        1 KAF      -0.2696
     13 CBC        46.4321   46.6588   43.4753 C.2         1 KAF       0.1780
     14 OAA        47.4340   47.2859   43.7914 O.2         1 KAF      -0.3970
     15 CAV        45.4549   46.2426   44.4740 C.3         1 KAF       0.0423
     16 CAW        45.6282   46.7863   45.9271 C.3         1 KAF       0.0204
     17 CBM        44.9196   45.9173   47.0298 C.3         1 KAF       0.1919
     18 OAE        43.7255   45.3474   46.4688 O.3         1 KAF      -0.3627
     19 OAF        44.4140   46.8097   48.0292 O.3         1 KAF      -0.3627
     20 CBL        45.8573   44.8168   47.6938 C.3         1 KAF       0.1045
     21 CAX        45.3873   43.3249   47.5699 C.3         1 KAF       0.0090
     22 CBF        46.0603   42.2995   48.4326 C.ar        1 KAF      -0.0407
     23 CAO        45.3582   41.1184   48.7889 C.ar        1 KAF      -0.0603
     24 CAI        45.9061   40.1888   49.6947 C.ar        1 KAF      -0.0686
     25 CAG        47.1695   40.4231   50.2653 C.ar        1 KAF      -0.0687
     26 CAJ        47.9033   41.5615   49.8864 C.ar        1 KAF      -0.0686
     27 CAP        47.3667   42.4737   48.9569 C.ar        1 KAF      -0.0603
     28 NBA        46.2197   45.1501   49.0485 N.am        1 KAF      -0.2759
     29 CBE        45.4666   45.0961   50.1455 C.2         1 KAF       0.2055
     30 OAC        44.2928   44.7634   50.0239 O.2         1 KAF      -0.3846
     31 CBG        45.9862   45.3766   51.4203 C.ar        1 KAF       0.0499
     32 CAR        47.3232   45.8173   51.6144 C.ar        1 KAF      -0.0419
     33 CAL        47.8161   46.1231   52.8967 C.ar        1 KAF      -0.0562
     34 CAH        46.9868   45.9943   54.0218 C.ar        1 KAF      -0.0575
     35 CAK        45.6636   45.5474   53.8636 C.ar        1 KAF      -0.0562
     36 CAQ        45.1763   45.2409   52.5823 C.ar        1 KAF      -0.0419
     37 H1         44.6446   43.9485   40.0755 H           1 KAF       0.0557
     38 H2         42.2446   44.0298   40.1856 H           1 KAF       0.0599
     39 H3         41.0740   46.1433   39.8937 H           1 KAF       0.0559
     40 H4         42.3318   48.1750   39.4690 H           1 KAF       0.0599
     41 H5         44.7370   48.1086   39.3375 H           1 KAF       0.0557
     42 H6         46.8073   46.5225   38.8787 H           1 KAF       0.0467
     43 H7         46.7565   44.9622   39.6448 H           1 KAF       0.0467
     44 H8         47.9804   45.9945   41.2439 H           1 KAF       0.0749
     45 H9         45.3774   45.8620   42.0406 H           1 KAF       0.1876
     46 H10        45.4534   45.1521   44.4887 H           1 KAF       0.0504
     47 H11        44.4677   46.5603   44.1233 H           1 KAF       0.0504
     48 H12        45.2245   47.8038   45.9363 H           1 KAF       0.0342
     49 H13        46.6878   46.8865   46.1763 H           1 KAF       0.0342
     50 H14        43.0295   46.0477   46.5754 H           1 KAF       0.2128
     51 H15        43.7558   47.3819   47.5795 H           1 KAF       0.2128
     52 H16        46.8093   44.8422   47.1632 H           1 KAF       0.0632
     53 H17        45.4937   43.0087   46.5308 H           1 KAF       0.0450
     54 H18        44.3172   43.3031   47.7919 H           1 KAF       0.0450
     55 H19        44.4303   40.9316   48.3988 H           1 KAF       0.0557
     56 H20        45.3806   39.3495   49.9487 H           1 KAF       0.0599
     57 H21        47.5581   39.7635   50.9455 H           1 KAF       0.0559
     58 H22        48.8333   41.7232   50.2882 H           1 KAF       0.0599
     59 H23        47.9327   43.2837   48.7018 H           1 KAF       0.0557
     60 H24        47.1459   45.4092   49.1735 H           1 KAF       0.1852
     61 H25        47.9601   45.9397   50.8266 H           1 KAF       0.0669
     62 H26        48.7808   46.4464   53.0085 H           1 KAF       0.0629
     63 H27        47.3462   46.2151   54.9548 H           1 KAF       0.0653
     64 H28        45.0570   45.4504   54.6813 H           1 KAF       0.0629
     65 H29        44.2065   44.9295   52.5072 H           1 KAF       0.0669
@<TRIPOS>BOND
     1     1     2  ar
     2     1     6  ar
     3     2     3  ar
     4     3     4  ar
     5     4     5  ar
     6     5     6  ar
     7     6     7   1
     8     7     8   1
     9     8     9   1
    10     8    12   1
    11     9    10  ar
    12     9    11  ar
    13    12    13  am
    14    13    14   2
    15    13    15   1
    16    15    16   1
    17    16    17   1
    18    17    18   1
    19    17    19   1
    20    17    20   1
    21    20    21   1
    22    20    28   1
    23    21    22   1
    24    22    23  ar
    25    22    27  ar
    26    23    24  ar
    27    24    25  ar
    28    25    26  ar
    29    26    27  ar
    30    28    29  am
    31    29    30   2
    32    29    31   1
    33    31    32  ar
    34    31    36  ar
    35    32    33  ar
    36    33    34  ar
    37    34    35  ar
    38    35    36  ar
    39     1    37   1
    40     2    38   1
    41     3    39   1
    42     4    40   1
    43     5    41   1
    44     7    42   1
    45     7    43   1
    46     8    44   1
    47    12    45   1
    48    15    46   1
    49    15    47   1
    50    16    48   1
    51    16    49   1
    52    18    50   1
    53    19    51   1
    54    20    52   1
    55    21    53   1
    56    21    54   1
    57    23    55   1
    58    24    56   1
    59    25    57   1
    60    26    58   1
    61    27    59   1
    62    28    60   1
    63    32    61   1
    64    33    62   1
    65    34    63   1
    66    35    64   1
    67    36    65   1
@<TRIPOS>SUBSTRUCTURE
     1  KAF      1

