@<TRIPOS>MOLECULE
3bkk_ligand_026
    65    67
SMALL
GAST_HUCK
****
This file was generated by PARSER (from files_GN.cpp)

@<TRIPOS>ATOM
      1 CD1        46.8403   42.1896   55.3694 C.ar        1 KAF      -0.0602
      2 CE1        47.1401   43.3135   56.1587 C.ar        1 KAF      -0.0686
      3 CZ         46.5860   44.5665   55.8365 C.ar        1 KAF      -0.0687
      4 CE2        45.7484   44.6941   54.7163 C.ar        1 KAF      -0.0686
      5 CD2        45.4743   43.5721   53.9137 C.ar        1 KAF      -0.0602
      6 CG         45.9998   42.2948   54.2339 C.ar        1 KAF      -0.0392
      7 CB         45.7195   41.1007   53.3803 C.3         1 KAF       0.0159
      8 CA         44.2233   40.7356   53.1036 C.3         1 KAF       0.1038
      9 C          43.4094   40.6781   54.3373 C.2         1 KAF       0.0621
     10 O          42.6296   39.6034   54.6024 O.co2       1 KAF      -0.5664
     11 OXT        43.4406   41.6863   55.2392 O.co2       1 KAF      -0.5664
     12 N          43.6318   41.6461   52.1676 N.am        1 KAF      -0.2696
     13 CBC        43.7410   41.6080   50.8416 C.2         1 KAF       0.1780
     14 OAA        44.2820   40.6673   50.2726 O.2         1 KAF      -0.3970
     15 CAV        43.4117   42.7949   50.0622 C.3         1 KAF       0.0423
     16 CAW        44.5258   43.0865   49.0050 C.3         1 KAF       0.0204
     17 CBM        44.6198   44.5372   48.4369 C.3         1 KAF       0.1919
     18 OAE        43.9217   45.4197   49.3163 O.3         1 KAF      -0.3627
     19 OAF        43.9237   44.5758   47.1934 O.3         1 KAF      -0.3627
     20 CBL        46.0917   45.0444   48.2307 C.3         1 KAF       0.1045
     21 CAX        47.1734   43.9381   47.9282 C.3         1 KAF       0.0090
     22 CBF        47.9495   43.4065   49.0973 C.ar        1 KAF      -0.0407
     23 CAO        47.8383   42.0531   49.5060 C.ar        1 KAF      -0.0603
     24 CAI        48.4777   41.5944   50.6699 C.ar        1 KAF      -0.0686
     25 CAG        49.2827   42.4649   51.4248 C.ar        1 KAF      -0.0687
     26 CAJ        49.4727   43.7852   50.9877 C.ar        1 KAF      -0.0686
     27 CAP        48.8246   44.2473   49.8288 C.ar        1 KAF      -0.0603
     28 NBA        46.4998   45.8602   49.3444 N.am        1 KAF      -0.2759
     29 CBE        47.1419   47.0246   49.3009 C.2         1 KAF       0.2055
     30 OAC        47.4213   47.5188   48.2148 O.2         1 KAF      -0.3846
     31 CBG        47.5316   47.6865   50.4684 C.ar        1 KAF       0.0499
     32 CAR        47.6594   47.0078   51.7106 C.ar        1 KAF      -0.0419
     33 CAL        48.0675   47.6859   52.8758 C.ar        1 KAF      -0.0562
     34 CAH        48.3389   49.0635   52.8268 C.ar        1 KAF      -0.0575
     35 CAK        48.2091   49.7616   51.6156 C.ar        1 KAF      -0.0562
     36 CAQ        47.8191   49.0780   50.4485 C.ar        1 KAF      -0.0419
     37 H1         47.2541   41.2892   55.6284 H           1 KAF       0.0557
     38 H2         47.7602   43.2274   56.9666 H           1 KAF       0.0599
     39 H3         46.8101   45.3871   56.4071 H           1 KAF       0.0559
     40 H4         45.3469   45.6044   54.4811 H           1 KAF       0.0599
     41 H5         44.8962   43.7040   53.0831 H           1 KAF       0.0557
     42 H6         46.1887   40.2146   53.8190 H           1 KAF       0.0467
     43 H7         46.2147   41.2568   52.4180 H           1 KAF       0.0467
     44 H8         44.2261   39.7278   52.6793 H           1 KAF       0.0749
     45 H9         43.2147   42.4371   52.5446 H           1 KAF       0.1876
     46 H10        43.3078   43.6638   50.7121 H           1 KAF       0.0504
     47 H11        42.4584   42.6390   49.5555 H           1 KAF       0.0504
     48 H12        44.3464   42.4147   48.1569 H           1 KAF       0.0342
     49 H13        45.4879   42.8278   49.4560 H           1 KAF       0.0342
     50 H14        43.2782   45.9202   48.7680 H           1 KAF       0.2128
     51 H15        43.4121   45.4124   47.2090 H           1 KAF       0.2128
     52 H16        46.0526   45.6778   47.3360 H           1 KAF       0.0632
     53 H17        47.8983   44.3414   47.2131 H           1 KAF       0.0450
     54 H18        46.6737   43.1197   47.4106 H           1 KAF       0.0450
     55 H19        47.2682   41.3952   48.9746 H           1 KAF       0.0557
     56 H20        48.3461   40.6260   50.9831 H           1 KAF       0.0599
     57 H21        49.7427   42.1341   52.2788 H           1 KAF       0.0559
     58 H22        50.0785   44.4169   51.5229 H           1 KAF       0.0599
     59 H23        48.9928   45.2068   49.5326 H           1 KAF       0.0557
     60 H24        46.3018   45.5124   50.2241 H           1 KAF       0.1852
     61 H25        47.4750   46.0061   51.7840 H           1 KAF       0.0669
     62 H26        48.1651   47.1792   53.7596 H           1 KAF       0.0629
     63 H27        48.6461   49.5540   53.6658 H           1 KAF       0.0653
     64 H28        48.3952   50.7649   51.5769 H           1 KAF       0.0629
     65 H29        47.7326   49.6148   49.5812 H           1 KAF       0.0669
@<TRIPOS>BOND
     1     1     2  ar
     2     1     6  ar
     3     2     3  ar
     4     3     4  ar
     5     4     5  ar
     6     5     6  ar
     7     6     7   1
     8     7     8   1
     9     8     9   1
    10     8    12   1
    11     9    10  ar
    12     9    11  ar
    13    12    13  am
    14    13    14   2
    15    13    15   1
    16    15    16   1
    17    16    17   1
    18    17    18   1
    19    17    19   1
    20    17    20   1
    21    20    21   1
    22    20    28   1
    23    21    22   1
    24    22    23  ar
    25    22    27  ar
    26    23    24  ar
    27    24    25  ar
    28    25    26  ar
    29    26    27  ar
    30    28    29  am
    31    29    30   2
    32    29    31   1
    33    31    32  ar
    34    31    36  ar
    35    32    33  ar
    36    33    34  ar
    37    34    35  ar
    38    35    36  ar
    39     1    37   1
    40     2    38   1
    41     3    39   1
    42     4    40   1
    43     5    41   1
    44     7    42   1
    45     7    43   1
    46     8    44   1
    47    12    45   1
    48    15    46   1
    49    15    47   1
    50    16    48   1
    51    16    49   1
    52    18    50   1
    53    19    51   1
    54    20    52   1
    55    21    53   1
    56    21    54   1
    57    23    55   1
    58    24    56   1
    59    25    57   1
    60    26    58   1
    61    27    59   1
    62    28    60   1
    63    32    61   1
    64    33    62   1
    65    34    63   1
    66    35    64   1
    67    36    65   1
@<TRIPOS>SUBSTRUCTURE
     1  KAF      1

