@<TRIPOS>MOLECULE
3bkk_ligand_013
    65    67
SMALL
GAST_HUCK
****
This file was generated by PARSER (from files_GN.cpp)

@<TRIPOS>ATOM
      1 CD1        43.7075   47.9196   41.6235 C.ar        1 KAF      -0.0602
      2 CE1        42.7937   48.8824   41.1534 C.ar        1 KAF      -0.0686
      3 CZ         43.1681   49.7693   40.1280 C.ar        1 KAF      -0.0687
      4 CE2        44.4604   49.6967   39.5694 C.ar        1 KAF      -0.0686
      5 CD2        45.3727   48.7314   40.0386 C.ar        1 KAF      -0.0602
      6 CG         45.0085   47.8334   41.0725 C.ar        1 KAF      -0.0392
      7 CB         45.9696   46.8065   41.5646 C.3         1 KAF       0.0159
      8 CA         47.0398   47.3376   42.5720 C.3         1 KAF       0.1038
      9 C          47.8411   48.4516   42.0007 C.2         1 KAF       0.0621
     10 O          47.4116   49.7370   42.0831 O.co2       1 KAF      -0.5664
     11 OXT        48.8078   48.1795   41.0826 O.co2       1 KAF      -0.5664
     12 N          46.5569   47.7351   43.8712 N.am        1 KAF      -0.2696
     13 CBC        45.6615   47.1124   44.6212 C.2         1 KAF       0.1780
     14 OAA        44.9664   46.2175   44.1474 O.2         1 KAF      -0.3970
     15 CAV        45.5477   47.4489   46.0424 C.3         1 KAF       0.0423
     16 CAW        46.1010   46.3303   46.9918 C.3         1 KAF       0.0204
     17 CBM        45.0498   45.4026   47.6988 C.3         1 KAF       0.1919
     18 OAE        43.8858   45.2216   46.8788 O.3         1 KAF      -0.3627
     19 OAF        44.6022   46.0412   48.9006 O.3         1 KAF      -0.3627
     20 CBL        45.6080   43.9819   48.0690 C.3         1 KAF       0.1045
     21 CAX        44.5145   43.0057   48.6407 C.3         1 KAF       0.0090
     22 CBF        44.8559   42.2646   49.8877 C.ar        1 KAF      -0.0407
     23 CAO        44.5022   42.7909   51.1548 C.ar        1 KAF      -0.0603
     24 CAI        44.8456   42.1083   52.3378 C.ar        1 KAF      -0.0686
     25 CAG        45.5535   40.8967   52.2699 C.ar        1 KAF      -0.0687
     26 CAJ        45.9249   40.3698   51.0221 C.ar        1 KAF      -0.0686
     27 CAP        45.5792   41.0484   49.8388 C.ar        1 KAF      -0.0603
     28 NBA        46.7431   44.1022   48.9578 N.am        1 KAF      -0.2759
     29 CBE        47.7883   43.2846   49.0444 C.2         1 KAF       0.2055
     30 OAC        47.8709   42.3476   48.2557 O.2         1 KAF      -0.3846
     31 CBG        48.7681   43.4164   50.0518 C.ar        1 KAF       0.0499
     32 CAR        48.8031   44.5413   50.9162 C.ar        1 KAF      -0.0419
     33 CAL        49.7829   44.6702   51.9214 C.ar        1 KAF      -0.0562
     34 CAH        50.7545   43.6711   52.0894 C.ar        1 KAF      -0.0575
     35 CAK        50.7447   42.5435   51.2531 C.ar        1 KAF      -0.0562
     36 CAQ        49.7649   42.4204   50.2482 C.ar        1 KAF      -0.0419
     37 H1         43.4185   47.2834   42.3669 H           1 KAF       0.0557
     38 H2         41.8566   48.9355   41.5553 H           1 KAF       0.0599
     39 H3         42.5023   50.4645   39.7803 H           1 KAF       0.0559
     40 H4         44.7338   50.3394   38.8241 H           1 KAF       0.0599
     41 H5         46.3149   48.7038   39.6315 H           1 KAF       0.0557
     42 H6         46.5014   46.3685   40.7110 H           1 KAF       0.0467
     43 H7         45.4250   45.9802   42.0471 H           1 KAF       0.0467
     44 H8         47.7392   46.5140   42.7543 H           1 KAF       0.0749
     45 H9         47.0460   48.4587   44.2988 H           1 KAF       0.1876
     46 H10        44.5059   47.6772   46.2790 H           1 KAF       0.0504
     47 H11        46.1117   48.3659   46.2463 H           1 KAF       0.0504
     48 H12        46.6856   46.8194   47.7772 H           1 KAF       0.0342
     49 H13        46.8159   45.7168   46.4362 H           1 KAF       0.0342
     50 H14        43.2592   45.9415   47.1274 H           1 KAF       0.2128
     51 H15        44.7148   47.0011   48.7423 H           1 KAF       0.2128
     52 H16        45.9516   43.5528   47.1225 H           1 KAF       0.0632
     53 H17        44.2691   42.2739   47.8660 H           1 KAF       0.0450
     54 H18        43.5779   43.5411   48.8242 H           1 KAF       0.0450
     55 H19        43.9937   43.6735   51.2236 H           1 KAF       0.0557
     56 H20        44.5791   42.4964   53.2470 H           1 KAF       0.0599
     57 H21        45.8031   40.4010   53.1315 H           1 KAF       0.0559
     58 H22        46.4479   39.4898   50.9734 H           1 KAF       0.0599
     59 H23        45.8692   40.6557   48.9394 H           1 KAF       0.0557
     60 H24        46.6693   44.7895   49.6370 H           1 KAF       0.1852
     61 H25        48.1219   45.2998   50.8272 H           1 KAF       0.0669
     62 H26        49.7889   45.4918   52.5275 H           1 KAF       0.0629
     63 H27        51.4664   43.7644   52.8140 H           1 KAF       0.0653
     64 H28        51.4525   41.8159   51.3697 H           1 KAF       0.0629
     65 H29        49.7939   41.5839   49.6590 H           1 KAF       0.0669
@<TRIPOS>BOND
     1     1     2  ar
     2     1     6  ar
     3     2     3  ar
     4     3     4  ar
     5     4     5  ar
     6     5     6  ar
     7     6     7   1
     8     7     8   1
     9     8     9   1
    10     8    12   1
    11     9    10  ar
    12     9    11  ar
    13    12    13  am
    14    13    14   2
    15    13    15   1
    16    15    16   1
    17    16    17   1
    18    17    18   1
    19    17    19   1
    20    17    20   1
    21    20    21   1
    22    20    28   1
    23    21    22   1
    24    22    23  ar
    25    22    27  ar
    26    23    24  ar
    27    24    25  ar
    28    25    26  ar
    29    26    27  ar
    30    28    29  am
    31    29    30   2
    32    29    31   1
    33    31    32  ar
    34    31    36  ar
    35    32    33  ar
    36    33    34  ar
    37    34    35  ar
    38    35    36  ar
    39     1    37   1
    40     2    38   1
    41     3    39   1
    42     4    40   1
    43     5    41   1
    44     7    42   1
    45     7    43   1
    46     8    44   1
    47    12    45   1
    48    15    46   1
    49    15    47   1
    50    16    48   1
    51    16    49   1
    52    18    50   1
    53    19    51   1
    54    20    52   1
    55    21    53   1
    56    21    54   1
    57    23    55   1
    58    24    56   1
    59    25    57   1
    60    26    58   1
    61    27    59   1
    62    28    60   1
    63    32    61   1
    64    33    62   1
    65    34    63   1
    66    35    64   1
    67    36    65   1
@<TRIPOS>SUBSTRUCTURE
     1  KAF      1

