@<TRIPOS>MOLECULE
3bkk_ligand_001
    65    67
SMALL
GAST_HUCK
****
This file was generated by PARSER (from files_GN.cpp)

@<TRIPOS>ATOM
      1 CD1        45.8732   45.2304   39.5738 C.ar        1 KAF      -0.0602
      2 CE1        45.4928   44.0139   38.9702 C.ar        1 KAF      -0.0686
      3 CZ         44.2370   43.4522   39.2547 C.ar        1 KAF      -0.0687
      4 CE2        43.3606   44.1053   40.1418 C.ar        1 KAF      -0.0686
      5 CD2        43.7482   45.3148   40.7558 C.ar        1 KAF      -0.0602
      6 CG         45.0147   45.8920   40.4876 C.ar        1 KAF      -0.0392
      7 CB         45.4138   47.2092   41.0623 C.3         1 KAF       0.0159
      8 CA         46.8098   47.2252   41.7846 C.3         1 KAF       0.1038
      9 C          47.6249   48.3998   41.3882 C.2         1 KAF       0.0621
     10 O          47.0809   49.6295   41.2383 O.co2       1 KAF      -0.5664
     11 OXT        48.8773   48.2095   40.9220 O.co2       1 KAF      -0.5664
     12 N          46.7283   47.0609   43.2150 N.am        1 KAF      -0.2696
     13 CBC        46.3324   47.9290   44.1346 C.2         1 KAF       0.1780
     14 OAA        45.9659   49.0615   43.8313 O.2         1 KAF      -0.3970
     15 CAV        46.2070   47.5010   45.5228 C.3         1 KAF       0.0423
     16 CAW        45.2487   46.2797   45.6519 C.3         1 KAF       0.0204
     17 CBM        44.5298   46.0808   47.0181 C.3         1 KAF       0.1919
     18 OAE        43.3909   45.2771   46.6949 O.3         1 KAF      -0.3627
     19 OAF        44.0309   47.3500   47.4508 O.3         1 KAF      -0.3627
     20 CBL        45.3786   45.3945   48.1583 C.3         1 KAF       0.1045
     21 CAX        44.4820   44.5972   49.1866 C.3         1 KAF       0.0090
     22 CBF        44.2362   43.1296   49.0064 C.ar        1 KAF      -0.0407
     23 CAO        45.1322   42.2631   48.3281 C.ar        1 KAF      -0.0603
     24 CAI        44.9320   40.8626   48.3286 C.ar        1 KAF      -0.0686
     25 CAG        43.8484   40.2954   49.0270 C.ar        1 KAF      -0.0687
     26 CAJ        42.9627   41.1363   49.7293 C.ar        1 KAF      -0.0686
     27 CAP        43.1580   42.5348   49.7257 C.ar        1 KAF      -0.0603
     28 NBA        46.1711   46.3583   48.8867 N.am        1 KAF      -0.2759
     29 CBE        47.0768   46.0743   49.8307 C.2         1 KAF       0.2055
     30 OAC        47.3642   44.8942   50.0355 O.2         1 KAF      -0.3846
     31 CBG        47.5667   47.0480   50.6923 C.ar        1 KAF       0.0499
     32 CAR        47.6737   48.4094   50.3006 C.ar        1 KAF      -0.0419
     33 CAL        48.1628   49.3820   51.1903 C.ar        1 KAF      -0.0562
     34 CAH        48.5374   49.0239   52.4953 C.ar        1 KAF      -0.0575
     35 CAK        48.4174   47.6918   52.9145 C.ar        1 KAF      -0.0562
     36 CAQ        47.9394   46.7162   52.0237 C.ar        1 KAF      -0.0419
     37 H1         46.7823   45.6337   39.3275 H           1 KAF       0.0557
     38 H2         46.1299   43.5375   38.3258 H           1 KAF       0.0599
     39 H3         43.9511   42.5793   38.8065 H           1 KAF       0.0559
     40 H4         42.4362   43.7110   40.3204 H           1 KAF       0.0599
     41 H5         43.0963   45.7790   41.3906 H           1 KAF       0.0557
     42 H6         44.6446   47.5693   41.7532 H           1 KAF       0.0467
     43 H7         45.4107   47.9081   40.2201 H           1 KAF       0.0467
     44 H8         47.3644   46.3424   41.4569 H           1 KAF       0.0749
     45 H9         46.9945   46.1866   43.5493 H           1 KAF       0.1876
     46 H10        45.8211   48.3307   46.1268 H           1 KAF       0.0504
     47 H11        47.2003   47.2469   45.9149 H           1 KAF       0.0504
     48 H12        45.8062   45.3685   45.3986 H           1 KAF       0.0342
     49 H13        44.4612   46.3922   44.8930 H           1 KAF       0.0342
     50 H14        42.6432   45.6902   47.1865 H           1 KAF       0.2128
     51 H15        43.2618   47.1401   48.0237 H           1 KAF       0.2128
     52 H16        46.0748   44.7099   47.6628 H           1 KAF       0.0632
     53 H17        43.5136   45.1057   49.2302 H           1 KAF       0.0450
     54 H18        44.8878   44.6819   50.2057 H           1 KAF       0.0450
     55 H19        45.9659   42.6259   47.8582 H           1 KAF       0.0557
     56 H20        45.5980   40.2472   47.8463 H           1 KAF       0.0599
     57 H21        43.7141   39.2747   49.0329 H           1 KAF       0.0559
     58 H22        42.1814   40.7241   50.2506 H           1 KAF       0.0599
     59 H23        42.5149   43.1116   50.2762 H           1 KAF       0.0557
     60 H24        45.9696   47.2921   48.7398 H           1 KAF       0.1852
     61 H25        47.4342   48.6995   49.3511 H           1 KAF       0.0669
     62 H26        48.2665   50.3510   50.8837 H           1 KAF       0.0629
     63 H27        48.8899   49.7338   53.1441 H           1 KAF       0.0653
     64 H28        48.6809   47.4271   53.8649 H           1 KAF       0.0629
     65 H29        47.8559   45.7563   52.3625 H           1 KAF       0.0669
@<TRIPOS>BOND
     1     1     2  ar
     2     1     6  ar
     3     2     3  ar
     4     3     4  ar
     5     4     5  ar
     6     5     6  ar
     7     6     7   1
     8     7     8   1
     9     8     9   1
    10     8    12   1
    11     9    10  ar
    12     9    11  ar
    13    12    13  am
    14    13    14   2
    15    13    15   1
    16    15    16   1
    17    16    17   1
    18    17    18   1
    19    17    19   1
    20    17    20   1
    21    20    21   1
    22    20    28   1
    23    21    22   1
    24    22    23  ar
    25    22    27  ar
    26    23    24  ar
    27    24    25  ar
    28    25    26  ar
    29    26    27  ar
    30    28    29  am
    31    29    30   2
    32    29    31   1
    33    31    32  ar
    34    31    36  ar
    35    32    33  ar
    36    33    34  ar
    37    34    35  ar
    38    35    36  ar
    39     1    37   1
    40     2    38   1
    41     3    39   1
    42     4    40   1
    43     5    41   1
    44     7    42   1
    45     7    43   1
    46     8    44   1
    47    12    45   1
    48    15    46   1
    49    15    47   1
    50    16    48   1
    51    16    49   1
    52    18    50   1
    53    19    51   1
    54    20    52   1
    55    21    53   1
    56    21    54   1
    57    23    55   1
    58    24    56   1
    59    25    57   1
    60    26    58   1
    61    27    59   1
    62    28    60   1
    63    32    61   1
    64    33    62   1
    65    34    63   1
    66    35    64   1
    67    36    65   1
@<TRIPOS>SUBSTRUCTURE
     1  KAF      1

