@<TRIPOS>MOLECULE
3bkk_ligand_031
    65    67
SMALL
GAST_HUCK
****
This file was generated by PARSER (from files_GN.cpp)

@<TRIPOS>ATOM
      1 CD1        43.4787   46.2770   41.2547 C.ar        1 KAF      -0.0602
      2 CE1        42.5716   45.9928   40.2149 C.ar        1 KAF      -0.0686
      3 CZ         41.4291   46.7943   40.0400 C.ar        1 KAF      -0.0687
      4 CE2        41.2011   47.8834   40.8980 C.ar        1 KAF      -0.0686
      5 CD2        42.1029   48.1546   41.9410 C.ar        1 KAF      -0.0602
      6 CG         43.2536   47.3547   42.1492 C.ar        1 KAF      -0.0392
      7 CB         44.1163   47.6518   43.3359 C.3         1 KAF       0.0159
      8 CA         45.4298   46.8339   43.5408 C.3         1 KAF       0.1038
      9 C          46.4944   47.1561   42.5611 C.2         1 KAF       0.0621
     10 O          46.5492   48.3462   41.9205 O.co2       1 KAF      -0.5664
     11 OXT        47.5629   46.3334   42.4339 O.co2       1 KAF      -0.5664
     12 N          45.9560   47.0406   44.8635 N.am        1 KAF      -0.2696
     13 CBC        45.6886   46.2994   45.9337 C.2         1 KAF       0.1780
     14 OAA        44.8814   45.3784   45.8930 O.2         1 KAF      -0.3970
     15 CAV        46.3893   46.5582   47.1812 C.3         1 KAF       0.0423
     16 CAW        47.5564   45.5657   47.4665 C.3         1 KAF       0.0204
     17 CBM        47.2399   44.1691   48.1018 C.3         1 KAF       0.1919
     18 OAE        48.4786   43.4590   48.0947 O.3         1 KAF      -0.3627
     19 OAF        46.4163   43.4141   47.2132 O.3         1 KAF      -0.3627
     20 CBL        46.6816   44.1623   49.5822 C.3         1 KAF       0.1045
     21 CAX        45.1181   44.2944   49.6996 C.3         1 KAF       0.0090
     22 CBF        44.4218   43.0517   50.1513 C.ar        1 KAF      -0.0407
     23 CAO        44.2126   42.8013   51.5291 C.ar        1 KAF      -0.0603
     24 CAI        43.5127   41.6571   51.9567 C.ar        1 KAF      -0.0686
     25 CAG        43.0353   40.7302   51.0147 C.ar        1 KAF      -0.0687
     26 CAJ        43.2569   40.9488   49.6440 C.ar        1 KAF      -0.0686
     27 CAP        43.9440   42.1012   49.2159 C.ar        1 KAF      -0.0603
     28 NBA        47.3164   45.1745   50.3935 N.am        1 KAF      -0.2759
     29 CBE        48.5546   45.1855   50.8869 C.2         1 KAF       0.2055
     30 OAC        49.2575   44.1958   50.7130 O.2         1 KAF      -0.3846
     31 CBG        49.0735   46.2909   51.5851 C.ar        1 KAF       0.0499
     32 CAR        48.2735   47.4222   51.9080 C.ar        1 KAF      -0.0419
     33 CAL        48.7956   48.5169   52.6198 C.ar        1 KAF      -0.0562
     34 CAH        50.1390   48.5147   53.0288 C.ar        1 KAF      -0.0575
     35 CAK        50.9583   47.4188   52.7163 C.ar        1 KAF      -0.0562
     36 CAQ        50.4326   46.3254   52.0013 C.ar        1 KAF      -0.0419
     37 H1         44.2912   45.6710   41.3496 H           1 KAF       0.0557
     38 H2         42.7338   45.1993   39.5940 H           1 KAF       0.0599
     39 H3         40.7676   46.5789   39.2875 H           1 KAF       0.0559
     40 H4         40.3685   48.4655   40.7705 H           1 KAF       0.0599
     41 H5         41.9040   48.9435   42.5624 H           1 KAF       0.0557
     42 H6         43.4909   47.5043   44.2197 H           1 KAF       0.0467
     43 H7         44.3816   48.7162   43.3173 H           1 KAF       0.0467
     44 H8         45.1958   45.7720   43.4169 H           1 KAF       0.0749
     45 H9         46.5893   47.7713   44.9702 H           1 KAF       0.1876
     46 H10        45.6823   46.5706   48.0111 H           1 KAF       0.0504
     47 H11        46.8162   47.5643   47.1381 H           1 KAF       0.0504
     48 H12        48.2646   46.0805   48.1228 H           1 KAF       0.0342
     49 H13        48.0982   45.4064   46.5297 H           1 KAF       0.0342
     50 H14        48.2662   42.5562   48.4135 H           1 KAF       0.2128
     51 H15        46.2877   42.5416   47.6432 H           1 KAF       0.2128
     52 H16        46.9449   43.1939   50.0228 H           1 KAF       0.0632
     53 H17        44.6880   44.5982   48.7451 H           1 KAF       0.0450
     54 H18        44.8508   45.0974   50.3935 H           1 KAF       0.0450
     55 H19        44.5546   43.4626   52.2310 H           1 KAF       0.0557
     56 H20        43.3447   41.5018   52.9547 H           1 KAF       0.0599
     57 H21        42.5242   39.8991   51.3243 H           1 KAF       0.0559
     58 H22        42.9126   40.2709   48.9590 H           1 KAF       0.0599
     59 H23        44.0884   42.2460   48.2155 H           1 KAF       0.0557
     60 H24        46.7774   45.9589   50.5690 H           1 KAF       0.1852
     61 H25        47.2909   47.4674   51.6367 H           1 KAF       0.0669
     62 H26        48.1972   49.3146   52.8445 H           1 KAF       0.0629
     63 H27        50.5174   49.3078   53.5525 H           1 KAF       0.0653
     64 H28        51.9360   47.4128   53.0112 H           1 KAF       0.0629
     65 H29        51.0652   45.5498   51.7881 H           1 KAF       0.0669
@<TRIPOS>BOND
     1     1     2  ar
     2     1     6  ar
     3     2     3  ar
     4     3     4  ar
     5     4     5  ar
     6     5     6  ar
     7     6     7   1
     8     7     8   1
     9     8     9   1
    10     8    12   1
    11     9    10  ar
    12     9    11  ar
    13    12    13  am
    14    13    14   2
    15    13    15   1
    16    15    16   1
    17    16    17   1
    18    17    18   1
    19    17    19   1
    20    17    20   1
    21    20    21   1
    22    20    28   1
    23    21    22   1
    24    22    23  ar
    25    22    27  ar
    26    23    24  ar
    27    24    25  ar
    28    25    26  ar
    29    26    27  ar
    30    28    29  am
    31    29    30   2
    32    29    31   1
    33    31    32  ar
    34    31    36  ar
    35    32    33  ar
    36    33    34  ar
    37    34    35  ar
    38    35    36  ar
    39     1    37   1
    40     2    38   1
    41     3    39   1
    42     4    40   1
    43     5    41   1
    44     7    42   1
    45     7    43   1
    46     8    44   1
    47    12    45   1
    48    15    46   1
    49    15    47   1
    50    16    48   1
    51    16    49   1
    52    18    50   1
    53    19    51   1
    54    20    52   1
    55    21    53   1
    56    21    54   1
    57    23    55   1
    58    24    56   1
    59    25    57   1
    60    26    58   1
    61    27    59   1
    62    28    60   1
    63    32    61   1
    64    33    62   1
    65    34    63   1
    66    35    64   1
    67    36    65   1
@<TRIPOS>SUBSTRUCTURE
     1  KAF      1

