@<TRIPOS>MOLECULE
3bkk_ligand_023
    65    67
SMALL
GAST_HUCK
****
This file was generated by PARSER (from files_GN.cpp)

@<TRIPOS>ATOM
      1 CD1        43.8285   48.9749   40.2677 C.ar        1 KAF      -0.0602
      2 CE1        42.4305   48.8395   40.2001 C.ar        1 KAF      -0.0686
      3 CZ         41.6844   48.6189   41.3726 C.ar        1 KAF      -0.0687
      4 CE2        42.3447   48.5452   42.6138 C.ar        1 KAF      -0.0686
      5 CD2        43.7409   48.6957   42.6816 C.ar        1 KAF      -0.0602
      6 CG         44.5093   48.8903   41.5086 C.ar        1 KAF      -0.0392
      7 CB         45.9976   48.9751   41.5685 C.3         1 KAF       0.0159
      8 CA         46.6551   47.6995   42.1780 C.3         1 KAF       0.1038
      9 C          48.0418   47.4185   41.7379 C.2         1 KAF       0.0621
     10 O          48.7636   48.2871   41.0002 O.co2       1 KAF      -0.5664
     11 OXT        48.6281   46.2428   42.0711 O.co2       1 KAF      -0.5664
     12 N          46.7135   47.7971   43.6090 N.am        1 KAF      -0.2696
     13 CBC        46.1208   47.0097   44.4991 C.2         1 KAF       0.1780
     14 OAA        45.3175   46.1536   44.1484 O.2         1 KAF      -0.3970
     15 CAV        46.5383   47.1205   45.8936 C.3         1 KAF       0.0423
     16 CAW        46.0172   46.0378   46.8937 C.3         1 KAF       0.0204
     17 CBM        47.0098   45.6667   48.0505 C.3         1 KAF       0.1919
     18 OAE        47.1097   46.7702   48.9570 O.3         1 KAF      -0.3627
     19 OAF        48.3222   45.5346   47.4938 O.3         1 KAF      -0.3627
     20 CBL        46.6340   44.3254   48.7832 C.3         1 KAF       0.1045
     21 CAX        45.3719   44.4325   49.7129 C.3         1 KAF       0.0090
     22 CBF        45.3931   43.5677   50.9247 C.ar        1 KAF      -0.0407
     23 CAO        45.8076   42.2155   50.8506 C.ar        1 KAF      -0.0603
     24 CAI        45.9261   41.4266   52.0167 C.ar        1 KAF      -0.0686
     25 CAG        45.5969   41.9699   53.2742 C.ar        1 KAF      -0.0687
     26 CAJ        45.1486   43.3039   53.3595 C.ar        1 KAF      -0.0686
     27 CAP        45.0534   44.0951   52.1985 C.ar        1 KAF      -0.0603
     28 NBA        47.7696   43.6919   49.3906 N.am        1 KAF      -0.2759
     29 CBE        48.5750   44.1179   50.3570 C.2         1 KAF       0.2055
     30 OAC        48.3311   45.2081   50.8684 O.2         1 KAF      -0.3846
     31 CBG        49.6473   43.3316   50.8159 C.ar        1 KAF       0.0499
     32 CAR        50.0346   42.1247   50.1704 C.ar        1 KAF      -0.0419
     33 CAL        51.1283   41.3643   50.6296 C.ar        1 KAF      -0.0562
     34 CAH        51.8641   41.7926   51.7456 C.ar        1 KAF      -0.0575
     35 CAK        51.4862   42.9665   52.4166 C.ar        1 KAF      -0.0562
     36 CAQ        50.3967   43.7278   51.9522 C.ar        1 KAF      -0.0419
     37 H1         44.3470   49.1169   39.3965 H           1 KAF       0.0557
     38 H2         41.9511   48.8923   39.2956 H           1 KAF       0.0599
     39 H3         40.6685   48.5104   41.3216 H           1 KAF       0.0559
     40 H4         41.8020   48.3792   43.4653 H           1 KAF       0.0599
     41 H5         44.1977   48.6492   43.5947 H           1 KAF       0.0557
     42 H6         46.2921   49.8584   42.1380 H           1 KAF       0.0467
     43 H7         46.3885   49.1161   40.5569 H           1 KAF       0.0467
     44 H8         46.0745   46.8295   41.8570 H           1 KAF       0.0749
     45 H9         47.3252   48.4583   43.9742 H           1 KAF       0.1876
     46 H10        46.2418   48.1104   46.2591 H           1 KAF       0.0504
     47 H11        47.6311   47.1042   45.8989 H           1 KAF       0.0504
     48 H12        45.7870   45.1204   46.3437 H           1 KAF       0.0342
     49 H13        45.0663   46.3841   47.3199 H           1 KAF       0.0342
     50 H14        46.3123   47.3295   48.7952 H           1 KAF       0.2128
     51 H15        48.2134   45.0670   46.6388 H           1 KAF       0.2128
     52 H16        46.3509   43.6230   47.9937 H           1 KAF       0.0632
     53 H17        44.4783   44.1690   49.1357 H           1 KAF       0.0450
     54 H18        45.2399   45.4734   50.0174 H           1 KAF       0.0450
     55 H19        46.0678   41.8011   49.9542 H           1 KAF       0.0557
     56 H20        46.2485   40.4549   51.9522 H           1 KAF       0.0599
     57 H21        45.6784   41.3977   54.1214 H           1 KAF       0.0559
     58 H22        44.9116   43.6995   54.2756 H           1 KAF       0.0599
     59 H23        44.7254   45.0590   52.2957 H           1 KAF       0.0557
     60 H24        47.9618   42.8143   49.0298 H           1 KAF       0.1852
     61 H25        49.5424   41.7802   49.3398 H           1 KAF       0.0669
     62 H26        51.3927   40.5026   50.1387 H           1 KAF       0.0629
     63 H27        52.6526   41.2384   52.0796 H           1 KAF       0.0653
     64 H28        52.0123   43.2733   53.2327 H           1 KAF       0.0629
     65 H29        50.1615   44.5798   52.4632 H           1 KAF       0.0669
@<TRIPOS>BOND
     1     1     2  ar
     2     1     6  ar
     3     2     3  ar
     4     3     4  ar
     5     4     5  ar
     6     5     6  ar
     7     6     7   1
     8     7     8   1
     9     8     9   1
    10     8    12   1
    11     9    10  ar
    12     9    11  ar
    13    12    13  am
    14    13    14   2
    15    13    15   1
    16    15    16   1
    17    16    17   1
    18    17    18   1
    19    17    19   1
    20    17    20   1
    21    20    21   1
    22    20    28   1
    23    21    22   1
    24    22    23  ar
    25    22    27  ar
    26    23    24  ar
    27    24    25  ar
    28    25    26  ar
    29    26    27  ar
    30    28    29  am
    31    29    30   2
    32    29    31   1
    33    31    32  ar
    34    31    36  ar
    35    32    33  ar
    36    33    34  ar
    37    34    35  ar
    38    35    36  ar
    39     1    37   1
    40     2    38   1
    41     3    39   1
    42     4    40   1
    43     5    41   1
    44     7    42   1
    45     7    43   1
    46     8    44   1
    47    12    45   1
    48    15    46   1
    49    15    47   1
    50    16    48   1
    51    16    49   1
    52    18    50   1
    53    19    51   1
    54    20    52   1
    55    21    53   1
    56    21    54   1
    57    23    55   1
    58    24    56   1
    59    25    57   1
    60    26    58   1
    61    27    59   1
    62    28    60   1
    63    32    61   1
    64    33    62   1
    65    34    63   1
    66    35    64   1
    67    36    65   1
@<TRIPOS>SUBSTRUCTURE
     1  KAF      1

