@<TRIPOS>MOLECULE
3bkk_ligand_008
    65    67
SMALL
GAST_HUCK
****
This file was generated by PARSER (from files_GN.cpp)

@<TRIPOS>ATOM
      1 CD1        43.4100   48.7323   42.1386 C.ar        1 KAF      -0.0602
      2 CE1        42.0016   48.6688   42.0208 C.ar        1 KAF      -0.0686
      3 CZ         41.3995   48.6349   40.7456 C.ar        1 KAF      -0.0687
      4 CE2        42.2051   48.6485   39.5883 C.ar        1 KAF      -0.0686
      5 CD2        43.6172   48.6855   39.7066 C.ar        1 KAF      -0.0602
      6 CG         44.2370   48.7243   40.9834 C.ar        1 KAF      -0.0392
      7 CB         45.7245   48.7541   41.1198 C.3         1 KAF       0.0159
      8 CA         46.3409   47.3403   41.3839 C.3         1 KAF       0.1038
      9 C          47.8132   47.2875   41.3151 C.2         1 KAF       0.0621
     10 O          48.5542   48.2852   40.7854 O.co2       1 KAF      -0.5664
     11 OXT        48.4311   46.1097   41.5521 O.co2       1 KAF      -0.5664
     12 N          45.8802   46.7156   42.5860 N.am        1 KAF      -0.2696
     13 CBC        45.7251   47.2526   43.8006 C.2         1 KAF       0.1780
     14 OAA        45.9675   48.4387   44.0114 O.2         1 KAF      -0.3970
     15 CAV        45.0699   46.4947   44.8555 C.3         1 KAF       0.0423
     16 CAW        45.7402   46.6414   46.2635 C.3         1 KAF       0.0204
     17 CBM        44.9350   46.0048   47.4557 C.3         1 KAF       0.1919
     18 OAE        44.0115   45.0477   46.9435 O.3         1 KAF      -0.3627
     19 OAF        44.1669   47.0243   48.1067 O.3         1 KAF      -0.3627
     20 CBL        45.8617   45.3218   48.5207 C.3         1 KAF       0.1045
     21 CAX        45.0685   44.5126   49.6162 C.3         1 KAF       0.0090
     22 CBF        44.6039   43.1242   49.2925 C.ar        1 KAF      -0.0407
     23 CAO        45.4557   42.2079   48.6269 C.ar        1 KAF      -0.0603
     24 CAI        45.0577   40.8711   48.4238 C.ar        1 KAF      -0.0686
     25 CAG        43.8200   40.4156   48.9303 C.ar        1 KAF      -0.0687
     26 CAJ        42.9876   41.3062   49.6196 C.ar        1 KAF      -0.0686
     27 CAP        43.3614   42.6458   49.7957 C.ar        1 KAF      -0.0603
     28 NBA        46.6513   46.3415   49.1746 N.am        1 KAF      -0.2759
     29 CBE        47.7512   46.1361   49.9004 C.2         1 KAF       0.2055
     30 OAC        48.2267   45.0002   49.9212 O.2         1 KAF      -0.3846
     31 CBG        48.3330   47.1444   50.6913 C.ar        1 KAF       0.0499
     32 CAR        47.7763   48.4527   50.7631 C.ar        1 KAF      -0.0419
     33 CAL        48.3239   49.4373   51.6052 C.ar        1 KAF      -0.0562
     34 CAH        49.4467   49.1452   52.3913 C.ar        1 KAF      -0.0575
     35 CAK        50.0260   47.8698   52.3356 C.ar        1 KAF      -0.0562
     36 CAQ        49.4815   46.8853   51.4959 C.ar        1 KAF      -0.0419
     37 H1         43.8230   48.7862   43.0794 H           1 KAF       0.0557
     38 H2         41.4122   48.6546   42.8616 H           1 KAF       0.0599
     39 H3         40.3726   48.5994   40.6546 H           1 KAF       0.0559
     40 H4         41.7727   48.6292   38.6562 H           1 KAF       0.0599
     41 H5         44.1873   48.6891   38.8497 H           1 KAF       0.0557
     42 H6         45.9963   49.4307   41.9405 H           1 KAF       0.0467
     43 H7         46.1465   49.1519   40.1824 H           1 KAF       0.0467
     44 H8         45.9873   46.6856   40.5832 H           1 KAF       0.0749
     45 H9         45.5882   45.7898   42.5196 H           1 KAF       0.1876
     46 H10        45.0728   45.4254   44.5977 H           1 KAF       0.0504
     47 H11        44.0181   46.8064   44.9077 H           1 KAF       0.0504
     48 H12        45.9101   47.7054   46.4775 H           1 KAF       0.0342
     49 H13        46.7229   46.1581   46.2066 H           1 KAF       0.0342
     50 H14        43.1321   45.3637   47.2525 H           1 KAF       0.2128
     51 H15        43.6541   47.4548   47.3924 H           1 KAF       0.2128
     52 H16        46.5259   44.6633   47.9750 H           1 KAF       0.0632
     53 H17        44.2294   45.1332   49.9506 H           1 KAF       0.0450
     54 H18        45.6969   44.3834   50.5042 H           1 KAF       0.0450
     55 H19        46.3924   42.4854   48.3172 H           1 KAF       0.0557
     56 H20        45.6688   40.2190   47.9306 H           1 KAF       0.0599
     57 H21        43.5314   39.4390   48.7818 H           1 KAF       0.0559
     58 H22        42.0946   40.9767   49.9963 H           1 KAF       0.0599
     59 H23        42.7496   43.2756   50.3207 H           1 KAF       0.0557
     60 H24        46.3152   47.2465   49.1182 H           1 KAF       0.1852
     61 H25        46.9512   48.7108   50.2168 H           1 KAF       0.0669
     62 H26        47.9007   50.3639   51.6493 H           1 KAF       0.0629
     63 H27        49.8408   49.8548   53.0083 H           1 KAF       0.0653
     64 H28        50.8348   47.6472   52.9116 H           1 KAF       0.0629
     65 H29        49.9139   45.9586   51.4841 H           1 KAF       0.0669
@<TRIPOS>BOND
     1     1     2  ar
     2     1     6  ar
     3     2     3  ar
     4     3     4  ar
     5     4     5  ar
     6     5     6  ar
     7     6     7   1
     8     7     8   1
     9     8     9   1
    10     8    12   1
    11     9    10  ar
    12     9    11  ar
    13    12    13  am
    14    13    14   2
    15    13    15   1
    16    15    16   1
    17    16    17   1
    18    17    18   1
    19    17    19   1
    20    17    20   1
    21    20    21   1
    22    20    28   1
    23    21    22   1
    24    22    23  ar
    25    22    27  ar
    26    23    24  ar
    27    24    25  ar
    28    25    26  ar
    29    26    27  ar
    30    28    29  am
    31    29    30   2
    32    29    31   1
    33    31    32  ar
    34    31    36  ar
    35    32    33  ar
    36    33    34  ar
    37    34    35  ar
    38    35    36  ar
    39     1    37   1
    40     2    38   1
    41     3    39   1
    42     4    40   1
    43     5    41   1
    44     7    42   1
    45     7    43   1
    46     8    44   1
    47    12    45   1
    48    15    46   1
    49    15    47   1
    50    16    48   1
    51    16    49   1
    52    18    50   1
    53    19    51   1
    54    20    52   1
    55    21    53   1
    56    21    54   1
    57    23    55   1
    58    24    56   1
    59    25    57   1
    60    26    58   1
    61    27    59   1
    62    28    60   1
    63    32    61   1
    64    33    62   1
    65    34    63   1
    66    35    64   1
    67    36    65   1
@<TRIPOS>SUBSTRUCTURE
     1  KAF      1

