@<TRIPOS>MOLECULE
3bkk_ligand_025
    65    67
SMALL
GAST_HUCK
****
This file was generated by PARSER (from files_GN.cpp)

@<TRIPOS>ATOM
      1 CD1        51.2830   40.9576   50.0721 C.ar        1 KAF      -0.0602
      2 CE1        52.4710   40.7298   50.7971 C.ar        1 KAF      -0.0686
      3 CZ         52.7567   41.4926   51.9439 C.ar        1 KAF      -0.0687
      4 CE2        51.8595   42.4888   52.3616 C.ar        1 KAF      -0.0686
      5 CD2        50.6724   42.7178   51.6378 C.ar        1 KAF      -0.0602
      6 CG         50.3616   41.9555   50.4820 C.ar        1 KAF      -0.0392
      7 CB         49.1518   42.2862   49.6593 C.3         1 KAF       0.0159
      8 CA         47.7691   41.7787   50.1757 C.3         1 KAF       0.1038
      9 C          47.6728   41.8071   51.6561 C.2         1 KAF       0.0621
     10 O          48.3491   40.8931   52.3882 O.co2       1 KAF      -0.5664
     11 OXT        46.7312   42.5378   52.2941 O.co2       1 KAF      -0.5664
     12 N          46.6571   42.5000   49.5967 N.am        1 KAF      -0.2696
     13 CBC        46.3251   42.6100   48.3161 C.2         1 KAF       0.1780
     14 OAA        47.0248   42.1035   47.4456 O.2         1 KAF      -0.3970
     15 CAV        45.0107   43.1288   47.9558 C.3         1 KAF       0.0423
     16 CAW        44.6218   44.5612   48.4386 C.3         1 KAF       0.0204
     17 CBM        44.8403   45.7726   47.4546 C.3         1 KAF       0.1919
     18 OAE        44.3155   46.8964   48.1614 O.3         1 KAF      -0.3627
     19 OAF        43.9745   45.6331   46.2745 O.3         1 KAF      -0.3627
     20 CBL        46.3481   46.0443   47.0267 C.3         1 KAF       0.1045
     21 CAX        47.1279   47.1379   47.8301 C.3         1 KAF       0.0090
     22 CBF        47.2744   47.0323   49.3035 C.ar        1 KAF      -0.0407
     23 CAO        47.4224   45.7780   49.9360 C.ar        1 KAF      -0.0603
     24 CAI        47.7182   45.6865   51.3104 C.ar        1 KAF      -0.0686
     25 CAG        47.8820   46.8613   52.0711 C.ar        1 KAF      -0.0687
     26 CAJ        47.7578   48.1196   51.4527 C.ar        1 KAF      -0.0686
     27 CAP        47.4610   48.2042   50.0792 C.ar        1 KAF      -0.0603
     28 NBA        46.4298   46.4834   45.6598 N.am        1 KAF      -0.2759
     29 CBE        45.7816   46.0054   44.5924 C.2         1 KAF       0.2055
     30 OAC        44.9197   45.1299   44.8102 O.2         1 KAF      -0.3846
     31 CBG        45.9283   46.6740   43.3679 C.ar        1 KAF       0.0499
     32 CAR        47.1357   47.3522   43.0501 C.ar        1 KAF      -0.0419
     33 CAL        47.2759   48.1200   41.8765 C.ar        1 KAF      -0.0562
     34 CAH        46.2078   48.2276   40.9879 C.ar        1 KAF      -0.0575
     35 CAK        44.9981   47.5691   41.2670 C.ar        1 KAF      -0.0562
     36 CAQ        44.8603   46.7913   42.4408 C.ar        1 KAF      -0.0419
     37 H1         51.1083   40.4081   49.2252 H           1 KAF       0.0557
     38 H2         53.1272   40.0044   50.4962 H           1 KAF       0.0599
     39 H3         53.6125   41.3111   52.4813 H           1 KAF       0.0559
     40 H4         52.0777   43.0518   53.1852 H           1 KAF       0.0599
     41 H5         50.0572   43.4788   51.9334 H           1 KAF       0.0557
     42 H6         49.3024   41.8970   48.6503 H           1 KAF       0.0467
     43 H7         49.1076   43.3677   49.5507 H           1 KAF       0.0467
     44 H8         47.6520   40.7361   49.8757 H           1 KAF       0.0749
     45 H9         46.0368   42.9034   50.2230 H           1 KAF       0.1876
     46 H10        44.2828   42.4243   48.3610 H           1 KAF       0.0504
     47 H11        44.8802   43.0807   46.8844 H           1 KAF       0.0504
     48 H12        45.1309   44.7807   49.3824 H           1 KAF       0.0342
     49 H13        43.5507   44.5450   48.6598 H           1 KAF       0.0342
     50 H14        43.7937   47.4135   47.4967 H           1 KAF       0.2128
     51 H15        43.3916   46.4254   46.2688 H           1 KAF       0.2128
     52 H16        46.8958   45.0993   47.0913 H           1 KAF       0.0632
     53 H17        46.6496   48.0879   47.5774 H           1 KAF       0.0450
     54 H18        48.1359   47.1722   47.4287 H           1 KAF       0.0450
     55 H19        47.3164   44.9238   49.3941 H           1 KAF       0.0557
     56 H20        47.8234   44.7666   51.7474 H           1 KAF       0.0599
     57 H21        48.1015   46.8077   53.0740 H           1 KAF       0.0559
     58 H22        47.8854   48.9784   51.9947 H           1 KAF       0.0599
     59 H23        47.4067   49.1335   49.6455 H           1 KAF       0.0557
     60 H24        47.0085   47.2439   45.4935 H           1 KAF       0.1852
     61 H25        47.9296   47.3032   43.6780 H           1 KAF       0.0669
     62 H26        48.1588   48.5952   41.6800 H           1 KAF       0.0629
     63 H27        46.3069   48.7884   40.1346 H           1 KAF       0.0653
     64 H28        44.2185   47.6545   40.6045 H           1 KAF       0.0629
     65 H29        43.9599   46.3425   42.6306 H           1 KAF       0.0669
@<TRIPOS>BOND
     1     1     2  ar
     2     1     6  ar
     3     2     3  ar
     4     3     4  ar
     5     4     5  ar
     6     5     6  ar
     7     6     7   1
     8     7     8   1
     9     8     9   1
    10     8    12   1
    11     9    10  ar
    12     9    11  ar
    13    12    13  am
    14    13    14   2
    15    13    15   1
    16    15    16   1
    17    16    17   1
    18    17    18   1
    19    17    19   1
    20    17    20   1
    21    20    21   1
    22    20    28   1
    23    21    22   1
    24    22    23  ar
    25    22    27  ar
    26    23    24  ar
    27    24    25  ar
    28    25    26  ar
    29    26    27  ar
    30    28    29  am
    31    29    30   2
    32    29    31   1
    33    31    32  ar
    34    31    36  ar
    35    32    33  ar
    36    33    34  ar
    37    34    35  ar
    38    35    36  ar
    39     1    37   1
    40     2    38   1
    41     3    39   1
    42     4    40   1
    43     5    41   1
    44     7    42   1
    45     7    43   1
    46     8    44   1
    47    12    45   1
    48    15    46   1
    49    15    47   1
    50    16    48   1
    51    16    49   1
    52    18    50   1
    53    19    51   1
    54    20    52   1
    55    21    53   1
    56    21    54   1
    57    23    55   1
    58    24    56   1
    59    25    57   1
    60    26    58   1
    61    27    59   1
    62    28    60   1
    63    32    61   1
    64    33    62   1
    65    34    63   1
    66    35    64   1
    67    36    65   1
@<TRIPOS>SUBSTRUCTURE
     1  KAF      1

