@<TRIPOS>MOLECULE
3bkk_ligand_011
    65    67
SMALL
GAST_HUCK
****
This file was generated by PARSER (from files_GN.cpp)

@<TRIPOS>ATOM
      1 CD1        46.1504   51.3736   43.1949 C.ar        1 KAF      -0.0602
      2 CE1        46.6326   52.4769   43.9210 C.ar        1 KAF      -0.0686
      3 CZ         47.8859   53.0307   43.6064 C.ar        1 KAF      -0.0687
      4 CE2        48.6561   52.4765   42.5677 C.ar        1 KAF      -0.0686
      5 CD2        48.1673   51.3771   41.8378 C.ar        1 KAF      -0.0602
      6 CG         46.9129   50.8032   42.1452 C.ar        1 KAF      -0.0392
      7 CB         46.3682   49.6554   41.3622 C.3         1 KAF       0.0159
      8 CA         46.6464   48.2373   41.9555 C.3         1 KAF       0.1038
      9 C          48.0012   47.6903   41.7140 C.2         1 KAF       0.0621
     10 O          48.9112   48.3246   40.9321 O.co2       1 KAF      -0.5664
     11 OXT        48.3018   46.4461   42.1372 O.co2       1 KAF      -0.5664
     12 N          46.3886   48.2160   43.3708 N.am        1 KAF      -0.2696
     13 CBC        45.2580   47.8415   43.9634 C.2         1 KAF       0.1780
     14 OAA        44.3081   47.4007   43.3209 O.2         1 KAF      -0.3970
     15 CAV        45.0882   48.0959   45.3885 C.3         1 KAF       0.0423
     16 CAW        45.8740   47.1144   46.3242 C.3         1 KAF       0.0204
     17 CBM        45.0078   46.2804   47.3317 C.3         1 KAF       0.1919
     18 OAE        44.2319   45.3559   46.5565 O.3         1 KAF      -0.3627
     19 OAF        44.0784   47.1825   47.9515 O.3         1 KAF      -0.3627
     20 CBL        45.7998   45.5598   48.4811 C.3         1 KAF       0.1045
     21 CAX        47.2556   45.0835   48.1292 C.3         1 KAF       0.0090
     22 CBF        48.0133   44.5740   49.3076 C.ar        1 KAF      -0.0407
     23 CAO        48.5093   43.2487   49.3438 C.ar        1 KAF      -0.0603
     24 CAI        49.1990   42.7711   50.4729 C.ar        1 KAF      -0.0686
     25 CAG        49.4268   43.6199   51.5731 C.ar        1 KAF      -0.0687
     26 CAJ        48.9551   44.9475   51.5444 C.ar        1 KAF      -0.0686
     27 CAP        48.2530   45.4200   50.4199 C.ar        1 KAF      -0.0603
     28 NBA        45.0631   44.4017   48.9389 N.am        1 KAF      -0.2759
     29 CBE        44.8167   44.0098   50.1910 C.2         1 KAF       0.2055
     30 OAC        45.1905   44.7399   51.1042 O.2         1 KAF      -0.3846
     31 CBG        44.2172   42.7674   50.4813 C.ar        1 KAF       0.0499
     32 CAR        43.6830   41.9332   49.4620 C.ar        1 KAF      -0.0419
     33 CAL        43.0905   40.6881   49.7630 C.ar        1 KAF      -0.0562
     34 CAH        43.0253   40.2429   51.0911 C.ar        1 KAF      -0.0575
     35 CAK        43.5475   41.0430   52.1214 C.ar        1 KAF      -0.0562
     36 CAQ        44.1351   42.2851   51.8163 C.ar        1 KAF      -0.0419
     37 H1         45.2311   50.9952   43.4327 H           1 KAF       0.0557
     38 H2         46.0708   52.8788   44.6794 H           1 KAF       0.0599
     39 H3         48.2379   53.8336   44.1373 H           1 KAF       0.0559
     40 H4         49.5691   52.8802   42.3402 H           1 KAF       0.0599
     41 H5         48.7404   50.9997   41.0814 H           1 KAF       0.0557
     42 H6         46.7431   49.6945   40.3351 H           1 KAF       0.0467
     43 H7         45.2859   49.7850   41.2820 H           1 KAF       0.0467
     44 H8         45.9756   47.5441   41.4328 H           1 KAF       0.0749
     45 H9         47.0777   48.6090   43.9420 H           1 KAF       0.1876
     46 H10        44.0150   48.0809   45.6367 H           1 KAF       0.0504
     47 H11        45.4334   49.1206   45.6020 H           1 KAF       0.0504
     48 H12        46.5997   47.6952   46.9134 H           1 KAF       0.0342
     49 H13        46.4444   46.3998   45.7166 H           1 KAF       0.0342
     50 H14        43.4410   45.8752   46.2900 H           1 KAF       0.2128
     51 H15        43.2615   46.6677   48.1317 H           1 KAF       0.2128
     52 H16        45.9048   46.2878   49.2972 H           1 KAF       0.0632
     53 H17        47.8199   45.9162   47.7063 H           1 KAF       0.0450
     54 H18        47.1826   44.3248   47.3506 H           1 KAF       0.0450
     55 H19        48.3497   42.6127   48.5553 H           1 KAF       0.0557
     56 H20        49.5513   41.8148   50.4861 H           1 KAF       0.0599
     57 H21        49.9313   43.2754   52.3869 H           1 KAF       0.0559
     58 H22        49.1017   45.5549   52.3467 H           1 KAF       0.0599
     59 H23        47.9253   46.3896   50.4148 H           1 KAF       0.0557
     60 H24        44.7938   43.7835   48.2415 H           1 KAF       0.1852
     61 H25        43.7116   42.2136   48.4808 H           1 KAF       0.0669
     62 H26        42.7092   40.1074   49.0124 H           1 KAF       0.0629
     63 H27        42.5990   39.3387   51.3119 H           1 KAF       0.0653
     64 H28        43.4995   40.7242   53.0900 H           1 KAF       0.0629
     65 H29        44.5127   42.8291   52.5938 H           1 KAF       0.0669
@<TRIPOS>BOND
     1     1     2  ar
     2     1     6  ar
     3     2     3  ar
     4     3     4  ar
     5     4     5  ar
     6     5     6  ar
     7     6     7   1
     8     7     8   1
     9     8     9   1
    10     8    12   1
    11     9    10  ar
    12     9    11  ar
    13    12    13  am
    14    13    14   2
    15    13    15   1
    16    15    16   1
    17    16    17   1
    18    17    18   1
    19    17    19   1
    20    17    20   1
    21    20    21   1
    22    20    28   1
    23    21    22   1
    24    22    23  ar
    25    22    27  ar
    26    23    24  ar
    27    24    25  ar
    28    25    26  ar
    29    26    27  ar
    30    28    29  am
    31    29    30   2
    32    29    31   1
    33    31    32  ar
    34    31    36  ar
    35    32    33  ar
    36    33    34  ar
    37    34    35  ar
    38    35    36  ar
    39     1    37   1
    40     2    38   1
    41     3    39   1
    42     4    40   1
    43     5    41   1
    44     7    42   1
    45     7    43   1
    46     8    44   1
    47    12    45   1
    48    15    46   1
    49    15    47   1
    50    16    48   1
    51    16    49   1
    52    18    50   1
    53    19    51   1
    54    20    52   1
    55    21    53   1
    56    21    54   1
    57    23    55   1
    58    24    56   1
    59    25    57   1
    60    26    58   1
    61    27    59   1
    62    28    60   1
    63    32    61   1
    64    33    62   1
    65    34    63   1
    66    35    64   1
    67    36    65   1
@<TRIPOS>SUBSTRUCTURE
     1  KAF      1

