@<TRIPOS>MOLECULE
3bpc_ligand_009
    58    59
SMALL
GAST_HUCK
****
This file was generated by PARSER (from files_GN.cpp)

@<TRIPOS>ATOM
      1 C1         31.9296   -1.7526   -2.1485 C.2         1 KDA       0.1089
      2 O1A        33.2575   -1.5878   -1.9254 O.co2       1 KDA      -0.5423
      3 O1B        31.5436   -2.1945   -3.3690 O.co2       1 KDA      -0.5423
      4 C2         30.9212   -1.4980   -1.0888 C.3         1 KDA       0.2378
      5 C3         29.8570   -0.4871   -1.6234 C.3         1 KDA       0.0399
      6 C4         28.6184   -0.4223   -0.6987 C.3         1 KDA       0.0884
      7 O4         27.6285    0.4096   -1.3014 O.3         1 KDA      -0.3891
      8 C5         28.0323   -1.8360   -0.4215 C.3         1 KDA       0.1096
      9 O5         27.4125   -2.3587   -1.5910 O.3         1 KDA      -0.3866
     10 C6         29.1617   -2.7841    0.0832 C.3         1 KDA       0.1173
     11 O6         30.2752   -2.7659   -0.8274 O.3         1 KDA      -0.3347
     12 C7         28.7682   -4.2776    0.2833 C.3         1 KDA       0.1055
     13 O7         28.9125   -4.9905   -0.9400 O.3         1 KDA      -0.3869
     14 C8         27.3647   -4.5098    0.9036 C.3         1 KDA       0.0619
     15 O8         27.0841   -3.5867    1.9820 O.3         1 KDA      -0.4032
     16 O2         31.5743   -0.8939    0.0553 O.3         1 KDA      -0.3023
     17 C9         31.8238   -1.6431    1.1463 C.2         1 KDA       0.0369
     18 C10        32.0175   -1.0946    2.3549 C.2         1 KDA      -0.0824
     19 C11        32.0802    0.3234    2.6001 C.3         1 KDA      -0.0537
     20 C2         25.9743   -3.8603    2.8767 C.3         1 KDA       0.1781
     21 C1         26.1794   -5.1455    3.5827 C.2         1 KDA       0.0464
     22 O1B        27.2751   -5.9020    3.3581 O.co2       1 KDA      -0.5651
     23 O1A        25.3452   -5.5187    4.5793 O.co2       1 KDA      -0.5651
     24 C3         24.6768   -3.8650    2.1782 C.2         1 KDA      -0.0254
     25 C4         23.7419   -2.9200    2.3674 C.2         1 KDA      -0.0084
     26 C5         23.9106   -1.8296    3.3023 C.3         1 KDA       0.0514
     27 C6         25.4040   -1.5959    3.6776 C.3         1 KDA       0.0994
     28 O6         26.0213   -2.8752    3.9389 O.3         1 KDA      -0.3957
     29 C7         25.5625   -0.6805    4.9286 C.3         1 KDA       0.1076
     30 O7         24.9610    0.5990    4.7012 O.3         1 KDA      -0.3866
     31 C8         27.0347   -0.4518    5.3537 C.3         1 KDA       0.0729
     32 O8         27.6992    0.4872    4.5129 O.3         1 KDA      -0.3924
     33 H1         29.5135   -0.7892   -2.6227 H           1 KDA       0.0340
     34 H2         30.2974    0.5087   -1.7028 H           1 KDA       0.0340
     35 H3         28.9066    0.0371    0.2501 H           1 KDA       0.0621
     36 H4         27.0141    0.6712   -0.5873 H           1 KDA       0.2099
     37 H5         27.2557   -1.7219    0.3509 H           1 KDA       0.0646
     38 H6         26.5945   -2.8103   -1.2770 H           1 KDA       0.2100
     39 H7         29.5383   -2.4134    1.0594 H           1 KDA       0.0649
     40 H8         29.4995   -4.7175    0.9727 H           1 KDA       0.0642
     41 H9         28.0321   -5.4247   -1.1103 H           1 KDA       0.2100
     42 H10        27.3167   -5.5451    1.2822 H           1 KDA       0.0570
     43 H11        26.6156   -4.3904    0.1214 H           1 KDA       0.0570
     44 H12        31.7348   -2.6462    1.0737 H           1 KDA       0.0849
     45 H13        32.1266   -1.7152    3.1293 H           1 KDA       0.0331
     46 H14        32.1259    0.5224    3.6741 H           1 KDA       0.0321
     47 H15        31.1964    0.8273    2.1947 H           1 KDA       0.0321
     48 H16        32.9783    0.7418    2.1356 H           1 KDA       0.0321
     49 H17        24.4910   -4.5743    1.5056 H           1 KDA       0.0527
     50 H18        22.8782   -2.9985    1.8792 H           1 KDA       0.1535
     51 H19        23.3260   -2.0700    4.1936 H           1 KDA       0.0720
     52 H20        23.4990   -0.9200    2.8632 H           1 KDA       0.0720
     53 H21        25.9132   -1.1244    2.8293 H           1 KDA       0.0667
     54 H22        25.0397   -1.1496    5.7713 H           1 KDA       0.0646
     55 H23        23.9981    0.4304    4.6000 H           1 KDA       0.2100
     56 H24        27.5892   -1.3931    5.3408 H           1 KDA       0.0584
     57 H25        27.0583   -0.0635    6.3723 H           1 KDA       0.0584
     58 H26        27.7622    0.0579    3.6348 H           1 KDA       0.2095
@<TRIPOS>BOND
     1     1     2  ar
     2     1     3  ar
     3     1     4   1
     4     4     5   1
     5     4    11   1
     6     4    16   1
     7     5     6   1
     8     6     7   1
     9     6     8   1
    10     8     9   1
    11     8    10   1
    12    10    11   1
    13    10    12   1
    14    12    13   1
    15    12    14   1
    16    14    15   1
    17    15    20   1
    18    16    17   1
    19    17    18   2
    20    18    19   1
    21    20    21   1
    22    20    24   1
    23    20    28   1
    24    21    22  ar
    25    21    23  ar
    26    24    25   2
    27    25    26   1
    28    26    27   1
    29    27    28   1
    30    27    29   1
    31    29    30   1
    32    29    31   1
    33    31    32   1
    34     5    33   1
    35     5    34   1
    36     6    35   1
    37     7    36   1
    38     8    37   1
    39     9    38   1
    40    10    39   1
    41    12    40   1
    42    13    41   1
    43    14    42   1
    44    14    43   1
    45    17    44   1
    46    18    45   1
    47    19    46   1
    48    19    47   1
    49    19    48   1
    50    24    49   1
    51    25    50   1
    52    26    51   1
    53    26    52   1
    54    27    53   1
    55    29    54   1
    56    30    55   1
    57    31    56   1
    58    31    57   1
    59    32    58   1
@<TRIPOS>SUBSTRUCTURE
     1  KDA      1

