@<TRIPOS>MOLECULE
3bpc_ligand_015
    58    59
SMALL
GAST_HUCK
****
This file was generated by PARSER (from files_GN.cpp)

@<TRIPOS>ATOM
      1 C1         30.7277   -0.6509    0.8996 C.2         1 KDA       0.1089
      2 O1A        30.6225    0.6943    0.9682 O.co2       1 KDA      -0.5423
      3 O1B        31.8311   -1.1328    0.2845 O.co2       1 KDA      -0.5423
      4 C2         29.4978   -1.4751    0.9825 C.3         1 KDA       0.2378
      5 C3         28.8220   -1.5190   -0.4244 C.3         1 KDA       0.0399
      6 C4         27.6819   -2.5712   -0.4790 C.3         1 KDA       0.0884
      7 O4         27.1973   -2.6272   -1.8201 O.3         1 KDA      -0.3891
      8 C5         28.1688   -3.9691    0.0095 C.3         1 KDA       0.1096
      9 O5         29.0603   -4.5233   -0.9562 O.3         1 KDA      -0.3866
     10 C6         28.8577   -3.8263    1.4017 C.3         1 KDA       0.1173
     11 O6         29.8957   -2.8207    1.3371 O.3         1 KDA      -0.3347
     12 C7         29.5194   -5.0920    2.0279 C.3         1 KDA       0.1055
     13 O7         30.5601   -5.6276    1.2121 O.3         1 KDA      -0.3869
     14 C8         28.5282   -6.2122    2.4553 C.3         1 KDA       0.0619
     15 O8         29.2000   -7.3682    3.0104 O.3         1 KDA      -0.4032
     16 O2         28.5664   -0.8760    1.9265 O.3         1 KDA      -0.3023
     17 C9         28.8286   -0.9999    3.2408 C.2         1 KDA       0.0369
     18 C10        28.7871    0.0334    4.0877 C.2         1 KDA      -0.0824
     19 C11        28.6085    1.4113    3.6826 C.3         1 KDA      -0.0537
     20 C2         29.7355   -7.4036    4.3610 C.3         1 KDA       0.1781
     21 C1         28.6603   -7.7125    5.3432 C.2         1 KDA       0.0464
     22 O1B        28.1891   -8.9718    5.4486 O.co2       1 KDA      -0.5651
     23 O1A        27.8573   -6.7352    5.8363 O.co2       1 KDA      -0.5651
     24 C3         30.4827   -6.2017    4.7437 C.2         1 KDA      -0.0254
     25 C4         31.8196   -6.1155    4.6752 C.2         1 KDA      -0.0084
     26 C5         32.6700   -7.2330    4.3168 C.3         1 KDA       0.0514
     27 C6         31.8807   -8.4483    3.7437 C.3         1 KDA       0.0994
     28 O6         30.6069   -8.5676    4.4139 O.3         1 KDA      -0.3957
     29 C7         32.6790   -9.7872    3.8391 C.3         1 KDA       0.1076
     30 O7         32.1668  -10.7238    2.8898 O.3         1 KDA      -0.3866
     31 C8         32.6814  -10.4525    5.2433 C.3         1 KDA       0.0729
     32 O8         31.5312  -11.2659    5.4563 O.3         1 KDA      -0.3924
     33 H1         29.5641   -1.7790   -1.1875 H           1 KDA       0.0340
     34 H2         28.4163   -0.5330   -0.6736 H           1 KDA       0.0340
     35 H3         26.8563   -2.2288    0.1539 H           1 KDA       0.0621
     36 H4         26.2607   -2.9067   -1.7541 H           1 KDA       0.2099
     37 H5         27.3092   -4.6401    0.1002 H           1 KDA       0.0646
     38 H6         28.4827   -4.8078   -1.6974 H           1 KDA       0.2100
     39 H7         28.0896   -3.4993    2.1076 H           1 KDA       0.0649
     40 H8         30.0210   -4.7413    2.9305 H           1 KDA       0.0642
     41 H9         30.1296   -6.1404    0.4975 H           1 KDA       0.2100
     42 H10        27.9871   -6.5534    1.5702 H           1 KDA       0.0570
     43 H11        27.7900   -5.8188    3.1556 H           1 KDA       0.0570
     44 H12        28.9567   -1.9095    3.6203 H           1 KDA       0.0849
     45 H13        28.9018   -0.1514    5.0589 H           1 KDA       0.0331
     46 H14        28.5531    2.0604    4.5600 H           1 KDA       0.0321
     47 H15        27.6867    1.5259    3.1098 H           1 KDA       0.0321
     48 H16        29.4554    1.7287    3.0744 H           1 KDA       0.0321
     49 H17        29.9761   -5.3814    4.9998 H           1 KDA       0.0527
     50 H18        32.2588   -5.2632    4.9410 H           1 KDA       0.1535
     51 H19        33.2224   -7.5134    5.2143 H           1 KDA       0.0720
     52 H20        33.3931   -6.8985    3.5703 H           1 KDA       0.0720
     53 H21        31.6931   -8.2515    2.6845 H           1 KDA       0.0667
     54 H22        33.7171   -9.5913    3.5560 H           1 KDA       0.0646
     55 H23        32.4661  -10.3947    2.0167 H           1 KDA       0.2100
     56 H24        32.7158   -9.7017    6.0336 H           1 KDA       0.0584
     57 H25        33.5677  -11.0858    5.3478 H           1 KDA       0.0584
     58 H26        31.7164  -12.0994    4.9736 H           1 KDA       0.2095
@<TRIPOS>BOND
     1     1     2  ar
     2     1     3  ar
     3     1     4   1
     4     4     5   1
     5     4    11   1
     6     4    16   1
     7     5     6   1
     8     6     7   1
     9     6     8   1
    10     8     9   1
    11     8    10   1
    12    10    11   1
    13    10    12   1
    14    12    13   1
    15    12    14   1
    16    14    15   1
    17    15    20   1
    18    16    17   1
    19    17    18   2
    20    18    19   1
    21    20    21   1
    22    20    24   1
    23    20    28   1
    24    21    22  ar
    25    21    23  ar
    26    24    25   2
    27    25    26   1
    28    26    27   1
    29    27    28   1
    30    27    29   1
    31    29    30   1
    32    29    31   1
    33    31    32   1
    34     5    33   1
    35     5    34   1
    36     6    35   1
    37     7    36   1
    38     8    37   1
    39     9    38   1
    40    10    39   1
    41    12    40   1
    42    13    41   1
    43    14    42   1
    44    14    43   1
    45    17    44   1
    46    18    45   1
    47    19    46   1
    48    19    47   1
    49    19    48   1
    50    24    49   1
    51    25    50   1
    52    26    51   1
    53    26    52   1
    54    27    53   1
    55    29    54   1
    56    30    55   1
    57    31    56   1
    58    31    57   1
    59    32    58   1
@<TRIPOS>SUBSTRUCTURE
     1  KDA      1

