@<TRIPOS>MOLECULE
3bpc_ligand_018
    58    59
SMALL
GAST_HUCK
****
This file was generated by PARSER (from files_GN.cpp)

@<TRIPOS>ATOM
      1 C1         31.7363   -2.2394   -1.0332 C.2         1 KDA       0.1089
      2 O1A        32.7879   -1.3987   -1.1610 O.co2       1 KDA      -0.5423
      3 O1B        31.7374   -3.3654   -1.7837 O.co2       1 KDA      -0.5423
      4 C2         30.5235   -1.8115   -0.2938 C.3         1 KDA       0.2378
      5 C3         29.7477   -0.7852   -1.1781 C.3         1 KDA       0.0399
      6 C4         28.3628   -0.4626   -0.5578 C.3         1 KDA       0.0884
      7 O4         27.6360    0.4021   -1.4306 O.3         1 KDA      -0.3891
      8 C5         27.5587   -1.7596   -0.2663 C.3         1 KDA       0.1096
      9 O5         27.1919   -2.3626   -1.5076 O.3         1 KDA      -0.3866
     10 C6         28.4142   -2.7170    0.6143 C.3         1 KDA       0.1173
     11 O6         29.6809   -2.9655   -0.0436 O.3         1 KDA      -0.3347
     12 C7         27.7757   -4.1058    0.9121 C.3         1 KDA       0.1055
     13 O7         26.4595   -3.9801    1.4527 O.3         1 KDA      -0.3869
     14 C8         28.6414   -4.9445    1.9102 C.3         1 KDA       0.0619
     15 O8         28.8730   -6.2846    1.4088 O.3         1 KDA      -0.4032
     16 O2         30.8880   -1.1313    0.9356 O.3         1 KDA      -0.3023
     17 C9         31.7061   -1.7673    1.8097 C.2         1 KDA       0.0369
     18 C10        32.3857   -1.0717    2.7292 C.2         1 KDA      -0.0824
     19 C11        32.3272    0.3704    2.8482 C.3         1 KDA      -0.0537
     20 C2         30.0449   -7.0070    1.8714 C.3         1 KDA       0.1781
     21 C1         31.2363   -6.7249    1.0281 C.2         1 KDA       0.0464
     22 O1B        31.3935   -5.5423    0.3712 O.co2       1 KDA      -0.5651
     23 O1A        32.3038   -7.5627    1.0550 O.co2       1 KDA      -0.5651
     24 C3         29.7347   -8.4313    1.7685 C.2         1 KDA      -0.0254
     25 C4         29.6546   -9.2229    2.8489 C.2         1 KDA      -0.0084
     26 C5         29.8164   -8.7367    4.2063 C.3         1 KDA       0.0514
     27 C6         29.6959   -7.1894    4.2983 C.3         1 KDA       0.0994
     28 O6         30.4351   -6.6074    3.2107 O.3         1 KDA      -0.3957
     29 C7         30.2268   -6.5589    5.6247 C.3         1 KDA       0.1076
     30 O7         31.6595   -6.5832    5.6673 O.3         1 KDA      -0.3866
     31 C8         29.6927   -7.2272    6.9150 C.3         1 KDA       0.0729
     32 O8         28.2644   -7.2209    6.9744 O.3         1 KDA      -0.3924
     33 H1         29.5951   -1.1927   -2.1844 H           1 KDA       0.0340
     34 H2         30.3251    0.1433   -1.2697 H           1 KDA       0.0340
     35 H3         28.5216    0.0824    0.3821 H           1 KDA       0.0621
     36 H4         26.9441    0.7862   -0.8578 H           1 KDA       0.2099
     37 H5         26.6474   -1.4838    0.2670 H           1 KDA       0.0646
     38 H6         26.4195   -2.9265   -1.3007 H           1 KDA       0.2100
     39 H7         28.5775   -2.2296    1.5801 H           1 KDA       0.0649
     40 H8         27.6811   -4.6561   -0.0269 H           1 KDA       0.0642
     41 H9         25.8843   -3.6837    0.7180 H           1 KDA       0.2100
     42 H10        28.1417   -5.0240    2.8812 H           1 KDA       0.0570
     43 H11        29.5956   -4.4407    2.0948 H           1 KDA       0.0570
     44 H12        31.8134   -2.7597    1.7913 H           1 KDA       0.0849
     45 H13        32.9883   -1.5633    3.3545 H           1 KDA       0.0331
     46 H14        33.0065    0.7266    3.6300 H           1 KDA       0.0321
     47 H15        31.3084    0.6768    3.1119 H           1 KDA       0.0321
     48 H16        32.6116    0.8457    1.9009 H           1 KDA       0.0321
     49 H17        29.5587   -8.8200    0.8661 H           1 KDA       0.0527
     50 H18        29.5100  -10.1917    2.7076 H           1 KDA       0.1535
     51 H19        30.7942   -9.0642    4.5698 H           1 KDA       0.0720
     52 H20        29.0427   -9.1907    4.8317 H           1 KDA       0.0720
     53 H21        28.6474   -6.9029    4.1874 H           1 KDA       0.0667
     54 H22        29.9119   -5.5043    5.6398 H           1 KDA       0.0646
     55 H23        31.9450   -5.9800    4.9491 H           1 KDA       0.2100
     56 H24        30.0771   -6.6786    7.7865 H           1 KDA       0.0584
     57 H25        30.0526   -8.2611    6.9740 H           1 KDA       0.0584
     58 H26        28.0619   -7.6076    7.8508 H           1 KDA       0.2095
@<TRIPOS>BOND
     1     1     2  ar
     2     1     3  ar
     3     1     4   1
     4     4     5   1
     5     4    11   1
     6     4    16   1
     7     5     6   1
     8     6     7   1
     9     6     8   1
    10     8     9   1
    11     8    10   1
    12    10    11   1
    13    10    12   1
    14    12    13   1
    15    12    14   1
    16    14    15   1
    17    15    20   1
    18    16    17   1
    19    17    18   2
    20    18    19   1
    21    20    21   1
    22    20    24   1
    23    20    28   1
    24    21    22  ar
    25    21    23  ar
    26    24    25   2
    27    25    26   1
    28    26    27   1
    29    27    28   1
    30    27    29   1
    31    29    30   1
    32    29    31   1
    33    31    32   1
    34     5    33   1
    35     5    34   1
    36     6    35   1
    37     7    36   1
    38     8    37   1
    39     9    38   1
    40    10    39   1
    41    12    40   1
    42    13    41   1
    43    14    42   1
    44    14    43   1
    45    17    44   1
    46    18    45   1
    47    19    46   1
    48    19    47   1
    49    19    48   1
    50    24    49   1
    51    25    50   1
    52    26    51   1
    53    26    52   1
    54    27    53   1
    55    29    54   1
    56    30    55   1
    57    31    56   1
    58    31    57   1
    59    32    58   1
@<TRIPOS>SUBSTRUCTURE
     1  KDA      1

