@<TRIPOS>MOLECULE
3bpc_ligand_010
    58    59
SMALL
GAST_HUCK
****
This file was generated by PARSER (from files_GN.cpp)

@<TRIPOS>ATOM
      1 C1         26.9170   -5.6346    4.3093 C.2         1 KDA       0.1089
      2 O1A        27.5362   -5.7003    5.5102 O.co2       1 KDA      -0.5423
      3 O1B        25.5839   -5.3836    4.3594 O.co2       1 KDA      -0.5423
      4 C2         27.7094   -5.2356    3.1276 C.3         1 KDA       0.2378
      5 C3         26.8726   -5.3773    1.8066 C.3         1 KDA       0.0399
      6 C4         27.5562   -4.6915    0.5977 C.3         1 KDA       0.0884
      7 O4         26.7065   -4.7723   -0.5480 O.3         1 KDA      -0.3891
      8 C5         27.8995   -3.2124    0.9479 C.3         1 KDA       0.1096
      9 O5         26.7132   -2.4329    1.1369 O.3         1 KDA      -0.3866
     10 C6         28.7554   -3.2112    2.2510 C.3         1 KDA       0.1173
     11 O6         28.0133   -3.8298    3.3238 O.3         1 KDA      -0.3347
     12 C7         29.3141   -1.8189    2.7001 C.3         1 KDA       0.1055
     13 O7         28.2658   -0.8723    2.9191 O.3         1 KDA      -0.3869
     14 C8         30.4065   -1.2163    1.7609 C.3         1 KDA       0.0619
     15 O8         30.9004   -2.2450    0.8773 O.3         1 KDA      -0.4032
     16 O2         28.9848   -5.9441    3.1774 O.3         1 KDA      -0.3023
     17 C9         29.1825   -7.0759    2.4814 C.2         1 KDA       0.0369
     18 C10        29.6900   -8.1928    3.0324 C.2         1 KDA      -0.0824
     19 C11        29.9644   -8.3471    4.4420 C.3         1 KDA      -0.0537
     20 C2         31.6413   -2.0206   -0.3238 C.3         1 KDA       0.1781
     21 C1         31.0165   -0.9624   -1.1542 C.2         1 KDA       0.0464
     22 O1B        31.1742    0.3177   -0.7580 O.co2       1 KDA      -0.5651
     23 O1A        29.8497   -1.2078   -1.7981 O.co2       1 KDA      -0.5651
     24 C3         31.5947   -3.3200   -0.9845 C.2         1 KDA      -0.0254
     25 C4         32.5434   -4.2514   -0.7840 C.2         1 KDA      -0.0084
     26 C5         33.7782   -3.9992   -0.0608 C.3         1 KDA       0.0514
     27 C6         33.8019   -2.6247    0.6835 C.3         1 KDA       0.0994
     28 O6         33.0107   -1.6423   -0.0301 O.3         1 KDA      -0.3957
     29 C7         35.2257   -2.0695    1.0026 C.3         1 KDA       0.1076
     30 O7         35.0673   -0.7837    1.6047 O.3         1 KDA      -0.3866
     31 C8         36.2276   -1.9497   -0.1778 C.3         1 KDA       0.0729
     32 O8         35.8089   -1.0017   -1.1484 O.3         1 KDA      -0.3924
     33 H1         25.8951   -4.9043    1.9249 H           1 KDA       0.0340
     34 H2         26.6989   -6.4310    1.5840 H           1 KDA       0.0340
     35 H3         28.4815   -5.2416    0.3671 H           1 KDA       0.0621
     36 H4         27.2739   -5.0714   -1.2924 H           1 KDA       0.2099
     37 H5         28.4515   -2.7775    0.1127 H           1 KDA       0.0646
     38 H6         26.0815   -2.7289    0.4436 H           1 KDA       0.2100
     39 H7         29.6417   -3.8251    2.0759 H           1 KDA       0.0649
     40 H8         29.7838   -1.9727    3.6809 H           1 KDA       0.0642
     41 H9         27.8217   -0.7739    2.0480 H           1 KDA       0.2100
     42 H10        31.2382   -0.8127    2.3482 H           1 KDA       0.0570
     43 H11        29.9703   -0.3979    1.1732 H           1 KDA       0.0570
     44 H12        29.0711   -7.0444    1.4961 H           1 KDA       0.0849
     45 H13        29.8787   -8.9706    2.4314 H           1 KDA       0.0331
     46 H14        30.4037   -9.3298    4.6447 H           1 KDA       0.0321
     47 H15        29.0404   -8.2546    5.0152 H           1 KDA       0.0321
     48 H16        30.6640   -7.5789    4.7742 H           1 KDA       0.0321
     49 H17        30.7669   -3.5974   -1.4568 H           1 KDA       0.0527
     50 H18        32.4259   -5.1451   -1.2053 H           1 KDA       0.1535
     51 H19        34.5821   -4.0627   -0.7984 H           1 KDA       0.0720
     52 H20        33.9306   -4.8018    0.6704 H           1 KDA       0.0720
     53 H21        33.3150   -2.7790    1.6547 H           1 KDA       0.0667
     54 H22        35.6856   -2.7201    1.7521 H           1 KDA       0.0646
     55 H23        35.9209   -0.5848    2.0470 H           1 KDA       0.2100
     56 H24        36.3672   -2.9173   -0.6580 H           1 KDA       0.0584
     57 H25        37.1997   -1.6311    0.1998 H           1 KDA       0.0584
     58 H26        36.1291   -1.3553   -2.0025 H           1 KDA       0.2095
@<TRIPOS>BOND
     1     1     2  ar
     2     1     3  ar
     3     1     4   1
     4     4     5   1
     5     4    11   1
     6     4    16   1
     7     5     6   1
     8     6     7   1
     9     6     8   1
    10     8     9   1
    11     8    10   1
    12    10    11   1
    13    10    12   1
    14    12    13   1
    15    12    14   1
    16    14    15   1
    17    15    20   1
    18    16    17   1
    19    17    18   2
    20    18    19   1
    21    20    21   1
    22    20    24   1
    23    20    28   1
    24    21    22  ar
    25    21    23  ar
    26    24    25   2
    27    25    26   1
    28    26    27   1
    29    27    28   1
    30    27    29   1
    31    29    30   1
    32    29    31   1
    33    31    32   1
    34     5    33   1
    35     5    34   1
    36     6    35   1
    37     7    36   1
    38     8    37   1
    39     9    38   1
    40    10    39   1
    41    12    40   1
    42    13    41   1
    43    14    42   1
    44    14    43   1
    45    17    44   1
    46    18    45   1
    47    19    46   1
    48    19    47   1
    49    19    48   1
    50    24    49   1
    51    25    50   1
    52    26    51   1
    53    26    52   1
    54    27    53   1
    55    29    54   1
    56    30    55   1
    57    31    56   1
    58    31    57   1
    59    32    58   1
@<TRIPOS>SUBSTRUCTURE
     1  KDA      1

