@<TRIPOS>MOLECULE
3bpc_ligand_023
    58    59
SMALL
GAST_HUCK
****
This file was generated by PARSER (from files_GN.cpp)

@<TRIPOS>ATOM
      1 C1         36.3966   -1.6448    0.4915 C.2         1 KDA       0.1089
      2 O1A        36.0678   -0.9879   -0.6439 O.co2       1 KDA      -0.5423
      3 O1B        36.9612   -2.8647    0.3532 O.co2       1 KDA      -0.5423
      4 C2         36.1896   -1.0106    1.8189 C.3         1 KDA       0.2378
      5 C3         37.1227    0.2342    1.9791 C.3         1 KDA       0.0399
      6 C4         36.7606    1.0231    3.2622 C.3         1 KDA       0.0884
      7 O4         37.6095    2.1641    3.3936 O.3         1 KDA      -0.3891
      8 C5         35.2621    1.4355    3.2536 C.3         1 KDA       0.1096
      9 O5         35.0735    2.4676    2.2792 O.3         1 KDA      -0.3866
     10 C6         34.3534    0.1899    2.9727 C.3         1 KDA       0.1173
     11 O6         34.8249   -0.5246    1.8015 O.3         1 KDA      -0.3347
     12 C7         32.8480    0.5561    2.8133 C.3         1 KDA       0.1055
     13 O7         32.3503    1.0825    4.0451 O.3         1 KDA      -0.3869
     14 C8         31.9438   -0.6247    2.3737 C.3         1 KDA       0.0619
     15 O8         32.2050   -0.9450    0.9895 O.3         1 KDA      -0.4032
     16 O2         36.2700   -1.9913    2.8947 O.3         1 KDA      -0.3023
     17 C9         37.4559   -2.5356    3.2385 C.2         1 KDA       0.0369
     18 C10        37.5983   -3.8464    3.4685 C.2         1 KDA      -0.0824
     19 C11        36.5296   -4.8111    3.3229 C.3         1 KDA      -0.0537
     20 C2         31.4510   -2.0009    0.3527 C.3         1 KDA       0.1781
     21 C1         31.7102   -3.3142    0.9848 C.2         1 KDA       0.0464
     22 O1B        30.7904   -4.3039    0.9117 O.co2       1 KDA      -0.5651
     23 O1A        32.9692   -3.6628    1.3337 O.co2       1 KDA      -0.5651
     24 C3         31.9293   -2.0504   -1.0320 C.2         1 KDA      -0.0254
     25 C4         31.1743   -1.6614   -2.0691 C.2         1 KDA      -0.0084
     26 C5         29.8169   -1.1692   -1.9149 C.3         1 KDA       0.0514
     27 C6         29.5235   -0.7170   -0.4573 C.3         1 KDA       0.0994
     28 O6         30.0236   -1.7302    0.4450 O.3         1 KDA      -0.3957
     29 C7         28.0223   -0.4168   -0.1885 C.3         1 KDA       0.1076
     30 O7         27.9037    0.1066    1.1371 O.3         1 KDA      -0.3866
     31 C8         27.0482   -1.6197   -0.3583 C.3         1 KDA       0.0729
     32 O8         26.3733   -1.5242   -1.6111 O.3         1 KDA      -0.3924
     33 H1         36.9952    0.8978    1.1206 H           1 KDA       0.0340
     34 H2         38.1699   -0.0669    2.0067 H           1 KDA       0.0340
     35 H3         36.9491    0.3913    4.1364 H           1 KDA       0.0621
     36 H4         37.4346    2.7167    2.6014 H           1 KDA       0.2099
     37 H5         35.0133    1.8534    4.2355 H           1 KDA       0.0646
     38 H6         34.1698    2.8171    2.4279 H           1 KDA       0.2100
     39 H7         34.4257   -0.4792    3.8341 H           1 KDA       0.0649
     40 H8         32.7327    1.3394    2.0618 H           1 KDA       0.0642
     41 H9         32.4324    0.3523    4.6950 H           1 KDA       0.2100
     42 H10        30.8952   -0.3239    2.4852 H           1 KDA       0.0570
     43 H11        32.1298   -1.4835    3.0208 H           1 KDA       0.0570
     44 H12        38.2395   -1.9436    3.3982 H           1 KDA       0.0849
     45 H13        38.4907   -4.1794    3.7475 H           1 KDA       0.0331
     46 H14        36.8919   -5.8174    3.5521 H           1 KDA       0.0321
     47 H15        36.1516   -4.8078    2.2970 H           1 KDA       0.0321
     48 H16        35.7113   -4.5740    4.0077 H           1 KDA       0.0321
     49 H17        32.8725   -2.3260   -1.2079 H           1 KDA       0.0527
     50 H18        31.5455   -1.7435   -2.9907 H           1 KDA       0.1535
     51 H19        29.1454   -1.9771   -2.2003 H           1 KDA       0.0720
     52 H20        29.6437   -0.3279   -2.5899 H           1 KDA       0.0720
     53 H21        30.0735    0.2155   -0.2749 H           1 KDA       0.0667
     54 H22        27.7112    0.3854   -0.8630 H           1 KDA       0.0646
     55 H23        27.0408    0.5714    1.1213 H           1 KDA       0.2100
     56 H24        26.2950   -1.6188    0.4301 H           1 KDA       0.0584
     57 H25        27.5754   -2.5731   -0.3062 H           1 KDA       0.0584
     58 H26        25.7579   -2.2825   -1.6480 H           1 KDA       0.2095
@<TRIPOS>BOND
     1     1     2  ar
     2     1     3  ar
     3     1     4   1
     4     4     5   1
     5     4    11   1
     6     4    16   1
     7     5     6   1
     8     6     7   1
     9     6     8   1
    10     8     9   1
    11     8    10   1
    12    10    11   1
    13    10    12   1
    14    12    13   1
    15    12    14   1
    16    14    15   1
    17    15    20   1
    18    16    17   1
    19    17    18   2
    20    18    19   1
    21    20    21   1
    22    20    24   1
    23    20    28   1
    24    21    22  ar
    25    21    23  ar
    26    24    25   2
    27    25    26   1
    28    26    27   1
    29    27    28   1
    30    27    29   1
    31    29    30   1
    32    29    31   1
    33    31    32   1
    34     5    33   1
    35     5    34   1
    36     6    35   1
    37     7    36   1
    38     8    37   1
    39     9    38   1
    40    10    39   1
    41    12    40   1
    42    13    41   1
    43    14    42   1
    44    14    43   1
    45    17    44   1
    46    18    45   1
    47    19    46   1
    48    19    47   1
    49    19    48   1
    50    24    49   1
    51    25    50   1
    52    26    51   1
    53    26    52   1
    54    27    53   1
    55    29    54   1
    56    30    55   1
    57    31    56   1
    58    31    57   1
    59    32    58   1
@<TRIPOS>SUBSTRUCTURE
     1  KDA      1

