@<TRIPOS>MOLECULE
3bpc_ligand_007
    58    59
SMALL
GAST_HUCK
****
This file was generated by PARSER (from files_GN.cpp)

@<TRIPOS>ATOM
      1 C1         28.2920   -3.5196   -1.0459 C.2         1 KDA       0.1089
      2 O1A        29.1423   -3.9709   -1.9931 O.co2       1 KDA      -0.5423
      3 O1B        27.6278   -2.3771   -1.3386 O.co2       1 KDA      -0.5423
      4 C2         28.1683   -4.2435    0.2529 C.3         1 KDA       0.2378
      5 C3         28.0756   -5.7747   -0.0323 C.3         1 KDA       0.0399
      6 C4         28.2178   -6.6070    1.2697 C.3         1 KDA       0.0884
      7 O4         28.2676   -7.9964    0.9400 O.3         1 KDA      -0.3891
      8 C5         29.4682   -6.1874    2.0937 C.3         1 KDA       0.1096
      9 O5         30.6672   -6.6596    1.4704 O.3         1 KDA      -0.3866
     10 C6         29.5095   -4.6401    2.2947 C.3         1 KDA       0.1173
     11 O6         29.3875   -3.9838    1.0090 O.3         1 KDA      -0.3347
     12 C7         30.7695   -4.1533    3.1006 C.3         1 KDA       0.1055
     13 O7         30.4370   -3.9879    4.4806 O.3         1 KDA      -0.3869
     14 C8         31.4365   -2.8410    2.6089 C.3         1 KDA       0.0619
     15 O8         30.4531   -1.7928    2.4574 O.3         1 KDA      -0.4032
     16 O2         26.9443   -3.8926    0.9651 O.3         1 KDA      -0.3023
     17 C9         26.8010   -2.6714    1.5079 C.2         1 KDA       0.0369
     18 C10        25.8045   -2.4080    2.3645 C.2         1 KDA      -0.0824
     19 C11        24.8287   -3.3877    2.7940 C.3         1 KDA      -0.0537
     20 C2         30.7804   -0.6062    1.6803 C.3         1 KDA       0.1781
     21 C1         31.3661    0.4668    2.5209 C.2         1 KDA       0.0464
     22 O1B        32.2426    0.1728    3.5090 O.co2       1 KDA      -0.5651
     23 O1A        31.3630    1.7457    2.0739 O.co2       1 KDA      -0.5651
     24 C3         29.4790   -0.1495    1.1818 C.2         1 KDA      -0.0254
     25 C4         29.1518   -0.2045   -0.1159 C.2         1 KDA      -0.0084
     26 C5         30.0591   -0.6880   -1.1376 C.3         1 KDA       0.0514
     27 C6         31.2127   -1.5511   -0.5288 C.3         1 KDA       0.0994
     28 O6         31.7347   -0.8217    0.6031 O.3         1 KDA      -0.3957
     29 C7         32.3438   -1.9183   -1.5377 C.3         1 KDA       0.1076
     30 O7         31.8215   -2.8003   -2.5322 O.3         1 KDA      -0.3866
     31 C8         33.5412   -2.6601   -0.8827 C.3         1 KDA       0.0729
     32 O8         34.2278   -1.8289    0.0556 O.3         1 KDA      -0.3924
     33 H1         28.8677   -6.0789   -0.7167 H           1 KDA       0.0340
     34 H2         27.1248   -5.9977   -0.5159 H           1 KDA       0.0340
     35 H3         27.3244   -6.4510    1.8828 H           1 KDA       0.0621
     36 H4         28.8717   -8.0624    0.1671 H           1 KDA       0.2099
     37 H5         29.4127   -6.6660    3.0740 H           1 KDA       0.0646
     38 H6         30.5207   -6.6056    0.5013 H           1 KDA       0.2100
     39 H7         28.6384   -4.3631    2.8945 H           1 KDA       0.0649
     40 H8         31.5522   -4.9124    3.0727 H           1 KDA       0.0642
     41 H9         30.2217   -4.8874    4.7992 H           1 KDA       0.2100
     42 H10        31.9280   -3.0518    1.6541 H           1 KDA       0.0570
     43 H11        32.2042   -2.5325    3.3188 H           1 KDA       0.0570
     44 H12        27.4318   -1.9413    1.2788 H           1 KDA       0.0849
     45 H13        25.7317   -1.4859    2.7357 H           1 KDA       0.0331
     46 H14        24.0982   -2.9259    3.4620 H           1 KDA       0.0321
     47 H15        25.3267   -4.1969    3.3307 H           1 KDA       0.0321
     48 H16        24.2981   -3.7961    1.9322 H           1 KDA       0.0321
     49 H17        28.7880    0.1473    1.8387 H           1 KDA       0.0527
     50 H18        28.2579    0.1203   -0.3917 H           1 KDA       0.1535
     51 H19        30.4754    0.1790   -1.6536 H           1 KDA       0.0720
     52 H20        29.4919   -1.2879   -1.8540 H           1 KDA       0.0720
     53 H21        30.7809   -2.4942   -0.1811 H           1 KDA       0.0667
     54 H22        32.7220   -1.0159   -2.0351 H           1 KDA       0.0646
     55 H23        31.2701   -2.2399   -3.1244 H           1 KDA       0.2100
     56 H24        34.2558   -2.9567   -1.6573 H           1 KDA       0.0584
     57 H25        33.1992   -3.5685   -0.3735 H           1 KDA       0.0584
     58 H26        34.9493   -2.3957    0.4084 H           1 KDA       0.2095
@<TRIPOS>BOND
     1     1     2  ar
     2     1     3  ar
     3     1     4   1
     4     4     5   1
     5     4    11   1
     6     4    16   1
     7     5     6   1
     8     6     7   1
     9     6     8   1
    10     8     9   1
    11     8    10   1
    12    10    11   1
    13    10    12   1
    14    12    13   1
    15    12    14   1
    16    14    15   1
    17    15    20   1
    18    16    17   1
    19    17    18   2
    20    18    19   1
    21    20    21   1
    22    20    24   1
    23    20    28   1
    24    21    22  ar
    25    21    23  ar
    26    24    25   2
    27    25    26   1
    28    26    27   1
    29    27    28   1
    30    27    29   1
    31    29    30   1
    32    29    31   1
    33    31    32   1
    34     5    33   1
    35     5    34   1
    36     6    35   1
    37     7    36   1
    38     8    37   1
    39     9    38   1
    40    10    39   1
    41    12    40   1
    42    13    41   1
    43    14    42   1
    44    14    43   1
    45    17    44   1
    46    18    45   1
    47    19    46   1
    48    19    47   1
    49    19    48   1
    50    24    49   1
    51    25    50   1
    52    26    51   1
    53    26    52   1
    54    27    53   1
    55    29    54   1
    56    30    55   1
    57    31    56   1
    58    31    57   1
    59    32    58   1
@<TRIPOS>SUBSTRUCTURE
     1  KDA      1

