@<TRIPOS>MOLECULE
3bpc_ligand_016
    58    59
SMALL
GAST_HUCK
****
This file was generated by PARSER (from files_GN.cpp)

@<TRIPOS>ATOM
      1 C1         30.6338   -0.9940   -1.0184 C.2         1 KDA       0.1089
      2 O1A        29.6469   -1.0430   -1.9417 O.co2       1 KDA      -0.5423
      3 O1B        31.1525    0.2247   -0.7475 O.co2       1 KDA      -0.5423
      4 C2         30.9007   -2.1582   -0.1293 C.3         1 KDA       0.2378
      5 C3         31.4041   -3.3857   -0.9559 C.3         1 KDA       0.0399
      6 C4         32.0163   -4.4872   -0.0490 C.3         1 KDA       0.0884
      7 O4         32.5930   -5.5328   -0.8351 O.3         1 KDA      -0.3891
      8 C5         33.0872   -3.8976    0.9116 C.3         1 KDA       0.1096
      9 O5         34.2305   -3.4738    0.1721 O.3         1 KDA      -0.3866
     10 C6         32.4663   -2.7135    1.7128 C.3         1 KDA       0.1173
     11 O6         31.9464   -1.7314    0.7836 O.3         1 KDA      -0.3347
     12 C7         33.4274   -2.0526    2.7542 C.3         1 KDA       0.1055
     13 O7         32.6606   -1.5170    3.8408 O.3         1 KDA      -0.3869
     14 C8         34.3336   -0.9143    2.2065 C.3         1 KDA       0.0619
     15 O8         35.4026   -0.6847    3.1538 O.3         1 KDA      -0.4032
     16 O2         29.7688   -2.4833    0.7241 O.3         1 KDA      -0.3023
     17 C9         28.5210   -2.4448    0.2270 C.2         1 KDA       0.0369
     18 C10        27.6943   -1.4290    0.5348 C.2         1 KDA      -0.0824
     19 C11        28.0900   -0.3291    1.3918 C.3         1 KDA      -0.0537
     20 C2         36.2432    0.4934    3.0775 C.3         1 KDA       0.1781
     21 C1         37.0427    0.5699    1.8231 C.2         1 KDA       0.0464
     22 O1B        38.0890    1.4247    1.7534 O.co2       1 KDA      -0.5651
     23 O1A        36.4344    0.3504    0.6394 O.co2       1 KDA      -0.5651
     24 C3         37.1120    0.3437    4.2420 C.2         1 KDA      -0.0254
     25 C4         36.9137    1.0287    5.3797 C.2         1 KDA      -0.0084
     26 C5         35.8602    2.0140    5.5489 C.3         1 KDA       0.0514
     27 C6         34.8120    1.9970    4.3884 C.3         1 KDA       0.0994
     28 O6         35.4827    1.7267    3.1351 O.3         1 KDA      -0.3957
     29 C7         34.0030    3.3317    4.2934 C.3         1 KDA       0.1076
     30 O7         33.0223    3.3615    5.3353 O.3         1 KDA      -0.3866
     31 C8         33.3134    3.5383    2.9187 C.3         1 KDA       0.0729
     32 O8         32.2362    2.6263    2.7195 O.3         1 KDA      -0.3924
     33 H1         32.1671   -3.0538   -1.6602 H           1 KDA       0.0340
     34 H2         30.5835   -3.8072   -1.5338 H           1 KDA       0.0340
     35 H3         31.2213   -4.9430    0.5486 H           1 KDA       0.0621
     36 H4         31.9200   -6.2490   -0.8549 H           1 KDA       0.2099
     37 H5         33.4091   -4.6797    1.6049 H           1 KDA       0.0646
     38 H6         34.6321   -4.2899   -0.1900 H           1 KDA       0.2100
     39 H7         31.6357   -3.1343    2.2923 H           1 KDA       0.0649
     40 H8         34.0654   -2.8271    3.1885 H           1 KDA       0.0642
     41 H9         32.0539   -0.8615    3.4365 H           1 KDA       0.2100
     42 H10        33.7296   -0.0108    2.0613 H           1 KDA       0.0570
     43 H11        34.7592   -1.2208    1.2489 H           1 KDA       0.0570
     44 H12        28.1931   -3.1743   -0.3688 H           1 KDA       0.0849
     45 H13        26.7803   -1.4216    0.1421 H           1 KDA       0.0331
     46 H14        27.2827    0.4007    1.4897 H           1 KDA       0.0321
     47 H15        28.9606    0.1794    0.9665 H           1 KDA       0.0321
     48 H16        28.3437   -0.6978    2.3910 H           1 KDA       0.0321
     49 H17        37.8363   -0.3395    4.2226 H           1 KDA       0.0527
     50 H18        37.5414    0.8894    6.1342 H           1 KDA       0.1535
     51 H19        36.3364    2.9978    5.6158 H           1 KDA       0.0720
     52 H20        35.3431    1.8310    6.4948 H           1 KDA       0.0720
     53 H21        34.0942    1.1898    4.5839 H           1 KDA       0.0667
     54 H22        34.6796    4.1774    4.4396 H           1 KDA       0.0646
     55 H23        32.2091    3.7499    4.9423 H           1 KDA       0.2100
     56 H24        34.0414    3.4075    2.1155 H           1 KDA       0.0584
     57 H25        32.9206    4.5552    2.8520 H           1 KDA       0.0584
     58 H26        31.5051    3.0052    3.2507 H           1 KDA       0.2095
@<TRIPOS>BOND
     1     1     2  ar
     2     1     3  ar
     3     1     4   1
     4     4     5   1
     5     4    11   1
     6     4    16   1
     7     5     6   1
     8     6     7   1
     9     6     8   1
    10     8     9   1
    11     8    10   1
    12    10    11   1
    13    10    12   1
    14    12    13   1
    15    12    14   1
    16    14    15   1
    17    15    20   1
    18    16    17   1
    19    17    18   2
    20    18    19   1
    21    20    21   1
    22    20    24   1
    23    20    28   1
    24    21    22  ar
    25    21    23  ar
    26    24    25   2
    27    25    26   1
    28    26    27   1
    29    27    28   1
    30    27    29   1
    31    29    30   1
    32    29    31   1
    33    31    32   1
    34     5    33   1
    35     5    34   1
    36     6    35   1
    37     7    36   1
    38     8    37   1
    39     9    38   1
    40    10    39   1
    41    12    40   1
    42    13    41   1
    43    14    42   1
    44    14    43   1
    45    17    44   1
    46    18    45   1
    47    19    46   1
    48    19    47   1
    49    19    48   1
    50    24    49   1
    51    25    50   1
    52    26    51   1
    53    26    52   1
    54    27    53   1
    55    29    54   1
    56    30    55   1
    57    31    56   1
    58    31    57   1
    59    32    58   1
@<TRIPOS>SUBSTRUCTURE
     1  KDA      1

