@<TRIPOS>MOLECULE
3bpc_ligand_020
    58    59
SMALL
GAST_HUCK
****
This file was generated by PARSER (from files_GN.cpp)

@<TRIPOS>ATOM
      1 C1         28.3173   -3.4985   -0.9895 C.2         1 KDA       0.1089
      2 O1A        29.2136   -3.8960   -1.9223 O.co2       1 KDA      -0.5423
      3 O1B        27.7171   -2.3005   -1.1869 O.co2       1 KDA      -0.5423
      4 C2         28.1347   -4.2937    0.2599 C.3         1 KDA       0.2378
      5 C3         27.9920   -5.7993   -0.1181 C.3         1 KDA       0.0399
      6 C4         28.0471   -6.6940    1.1511 C.3         1 KDA       0.0884
      7 O4         28.0412   -8.0742    0.7769 O.3         1 KDA      -0.3891
      8 C5         29.2883   -6.3825    2.0398 C.3         1 KDA       0.1096
      9 O5         30.4712   -6.9498    1.4745 O.3         1 KDA      -0.3866
     10 C6         29.4372   -4.8470    2.2774 C.3         1 KDA       0.1173
     11 O6         29.3487   -4.1246    1.0280 O.3         1 KDA      -0.3347
     12 C7         30.7834   -4.4508    2.9522 C.3         1 KDA       0.1055
     13 O7         30.8656   -4.9544    4.2922 O.3         1 KDA      -0.3869
     14 C8         31.0286   -2.9103    3.0206 C.3         1 KDA       0.0619
     15 O8         30.6399   -2.3010    1.7760 O.3         1 KDA      -0.4032
     16 O2         26.9122   -3.9397    0.9707 O.3         1 KDA      -0.3023
     17 C9         26.7742   -2.7072    1.4934 C.2         1 KDA       0.0369
     18 C10        25.7411   -2.4386    2.3028 C.2         1 KDA      -0.0824
     19 C11        24.7230   -3.4064    2.6713 C.3         1 KDA      -0.0537
     20 C2         30.5974   -0.8710    1.5361 C.3         1 KDA       0.1781
     21 C1         30.6360   -0.7214    0.0588 C.2         1 KDA       0.0464
     22 O1B        30.4781   -1.7755   -0.7832 O.co2       1 KDA      -0.5651
     23 O1A        30.6750    0.5003   -0.5192 O.co2       1 KDA      -0.5651
     24 C3         31.7507   -0.1527    2.0893 C.2         1 KDA      -0.0254
     25 C4         31.6031    0.8027    3.0175 C.2         1 KDA      -0.0084
     26 C5         30.3061    1.2643    3.4730 C.3         1 KDA       0.0514
     27 C6         29.1719    0.2231    3.2311 C.3         1 KDA       0.0994
     28 O6         29.3050   -0.3084    1.8975 O.3         1 KDA      -0.3957
     29 C7         27.7269    0.7773    3.4440 C.3         1 KDA       0.1076
     30 O7         27.6355    2.2023    3.4055 O.3         1 KDA      -0.3866
     31 C8         27.0577    0.3016    4.7674 C.3         1 KDA       0.0729
     32 O8         27.6890    0.8759    5.9156 O.3         1 KDA      -0.3924
     33 H1         28.8031   -6.0990   -0.7829 H           1 KDA       0.0340
     34 H2         27.0466   -5.9583   -0.6475 H           1 KDA       0.0340
     35 H3         27.1412   -6.5263    1.7487 H           1 KDA       0.0621
     36 H4         28.7141   -8.1396    0.0613 H           1 KDA       0.2099
     37 H5         29.1461   -6.8769    2.9990 H           1 KDA       0.0646
     38 H6         30.4228   -6.7594    0.5126 H           1 KDA       0.2100
     39 H7         28.6334   -4.5249    2.9499 H           1 KDA       0.0649
     40 H8         31.6054   -4.8955    2.3806 H           1 KDA       0.0642
     41 H9         31.0056   -5.9289    4.2103 H           1 KDA       0.2100
     42 H10        32.1039   -2.7531    3.1887 H           1 KDA       0.0570
     43 H11        30.4694   -2.4891    3.8614 H           1 KDA       0.0570
     44 H12        27.4296   -1.9765    1.2782 H           1 KDA       0.0849
     45 H13        25.6684   -1.5223    2.6752 H           1 KDA       0.0331
     46 H14        23.9558   -2.9284    3.2816 H           1 KDA       0.0321
     47 H15        25.1739   -4.2180    3.2450 H           1 KDA       0.0321
     48 H16        24.2518   -3.8116    1.7730 H           1 KDA       0.0321
     49 H17        32.6715   -0.4097    1.8067 H           1 KDA       0.0527
     50 H18        32.4096    1.2770    3.3496 H           1 KDA       0.1535
     51 H19        30.0859    2.1886    2.9309 H           1 KDA       0.0720
     52 H20        30.3560    1.4904    4.5378 H           1 KDA       0.0720
     53 H21        29.3148   -0.6035    3.9274 H           1 KDA       0.0667
     54 H22        27.0939    0.4052    2.6346 H           1 KDA       0.0646
     55 H23        27.8825    2.4371    2.4910 H           1 KDA       0.2100
     56 H24        27.1072   -0.7976    4.8330 H           1 KDA       0.0584
     57 H25        25.9980    0.5927    4.7774 H           1 KDA       0.0584
     58 H26        27.2129    0.4799    6.6797 H           1 KDA       0.2095
@<TRIPOS>BOND
     1     1     2  ar
     2     1     3  ar
     3     1     4   1
     4     4     5   1
     5     4    11   1
     6     4    16   1
     7     5     6   1
     8     6     7   1
     9     6     8   1
    10     8     9   1
    11     8    10   1
    12    10    11   1
    13    10    12   1
    14    12    13   1
    15    12    14   1
    16    14    15   1
    17    15    20   1
    18    16    17   1
    19    17    18   2
    20    18    19   1
    21    20    21   1
    22    20    24   1
    23    20    28   1
    24    21    22  ar
    25    21    23  ar
    26    24    25   2
    27    25    26   1
    28    26    27   1
    29    27    28   1
    30    27    29   1
    31    29    30   1
    32    29    31   1
    33    31    32   1
    34     5    33   1
    35     5    34   1
    36     6    35   1
    37     7    36   1
    38     8    37   1
    39     9    38   1
    40    10    39   1
    41    12    40   1
    42    13    41   1
    43    14    42   1
    44    14    43   1
    45    17    44   1
    46    18    45   1
    47    19    46   1
    48    19    47   1
    49    19    48   1
    50    24    49   1
    51    25    50   1
    52    26    51   1
    53    26    52   1
    54    27    53   1
    55    29    54   1
    56    30    55   1
    57    31    56   1
    58    31    57   1
    59    32    58   1
@<TRIPOS>SUBSTRUCTURE
     1  KDA      1

