@<TRIPOS>MOLECULE
3bpc_ligand_028
    58    59
SMALL
GAST_HUCK
****
This file was generated by PARSER (from files_GN.cpp)

@<TRIPOS>ATOM
      1 C1         31.1724   -1.1339   -0.0138 C.2         1 KDA       0.1089
      2 O1A        31.0776    0.1313    0.4619 O.co2       1 KDA      -0.5423
      3 O1B        32.3318   -1.4506   -0.6476 O.co2       1 KDA      -0.5423
      4 C2         30.2310   -2.1932    0.4538 C.3         1 KDA       0.2378
      5 C3         30.0782   -3.3417   -0.6039 C.3         1 KDA       0.0399
      6 C4         29.2444   -4.5161   -0.0238 C.3         1 KDA       0.0884
      7 O4         29.1827   -5.5883   -0.9716 O.3         1 KDA      -0.3891
      8 C5         29.8589   -5.0221    1.3142 C.3         1 KDA       0.1096
      9 O5         31.0767   -5.7172    1.0365 O.3         1 KDA      -0.3866
     10 C6         30.0788   -3.8233    2.2926 C.3         1 KDA       0.1173
     11 O6         30.8266   -2.7563    1.6539 O.3         1 KDA      -0.3347
     12 C7         30.7197   -4.2110    3.6653 C.3         1 KDA       0.1055
     13 O7         30.3472   -3.2392    4.6500 O.3         1 KDA      -0.3869
     14 C8         32.2633   -4.3717    3.7028 C.3         1 KDA       0.0619
     15 O8         32.9026   -3.1384    3.3110 O.3         1 KDA      -0.4032
     16 O2         28.9847   -1.5708    0.8672 O.3         1 KDA      -0.3023
     17 C9         28.0175   -1.3691   -0.0372 C.2         1 KDA       0.0369
     18 C10        26.7623   -1.7740    0.2063 C.2         1 KDA      -0.0824
     19 C11        26.3373   -2.3574    1.4647 C.3         1 KDA      -0.0537
     20 C2         34.3246   -3.1661    3.0362 C.3         1 KDA       0.1781
     21 C1         35.1164   -3.6083    4.2138 C.2         1 KDA       0.0464
     22 O1B        36.3966   -4.0228    4.0403 O.co2       1 KDA      -0.5651
     23 O1A        34.7727   -3.1936    5.4548 O.co2       1 KDA      -0.5651
     24 C3         34.6941   -1.7818    2.7417 C.2         1 KDA      -0.0254
     25 C4         35.0588   -1.3853    1.5123 C.2         1 KDA      -0.0084
     26 C5         35.1331   -2.2910    0.3785 C.3         1 KDA       0.0514
     27 C6         34.3048   -3.5890    0.6208 C.3         1 KDA       0.0994
     28 O6         34.6252   -4.0776    1.9409 O.3         1 KDA      -0.3957
     29 C7         34.4998   -4.7002   -0.4527 C.3         1 KDA       0.1076
     30 O7         33.6659   -5.8011   -0.1110 O.3         1 KDA      -0.3866
     31 C8         35.9518   -5.2138   -0.6668 C.3         1 KDA       0.0729
     32 O8         36.7591   -5.0802    0.5033 O.3         1 KDA      -0.3924
     33 H1         31.0669   -3.7318   -0.8763 H           1 KDA       0.0340
     34 H2         29.6017   -2.9639   -1.5134 H           1 KDA       0.0340
     35 H3         28.2150   -4.1826    0.1567 H           1 KDA       0.0621
     36 H4         28.4135   -5.3913   -1.5491 H           1 KDA       0.2099
     37 H5         29.1649   -5.7381    1.7680 H           1 KDA       0.0646
     38 H6         30.8322   -6.4176    0.3934 H           1 KDA       0.2100
     39 H7         29.0805   -3.4447    2.5365 H           1 KDA       0.0649
     40 H8         30.2734   -5.1583    3.9932 H           1 KDA       0.0642
     41 H9         30.7288   -2.3904    4.3381 H           1 KDA       0.2100
     42 H10        32.5565   -5.1971    3.0568 H           1 KDA       0.0570
     43 H11        32.5558   -4.6298    4.7237 H           1 KDA       0.0570
     44 H12        28.2180   -0.9256   -0.9050 H           1 KDA       0.0849
     45 H13        26.0795   -1.6441   -0.5068 H           1 KDA       0.0331
     46 H14        25.2762   -2.6307    1.4307 H           1 KDA       0.0321
     47 H15        26.4788   -1.6333    2.2731 H           1 KDA       0.0321
     48 H16        26.9158   -3.2590    1.6852 H           1 KDA       0.0321
     49 H17        34.6239   -1.0941    3.4558 H           1 KDA       0.0527
     50 H18        35.3298   -0.4370    1.3735 H           1 KDA       0.1535
     51 H19        36.1882   -2.5323    0.2189 H           1 KDA       0.0720
     52 H20        34.7504   -1.7850   -0.5170 H           1 KDA       0.0720
     53 H21        33.2421   -3.3194    0.5929 H           1 KDA       0.0667
     54 H22        34.1381   -4.3119   -1.4103 H           1 KDA       0.0646
     55 H23        33.4300   -6.2256   -0.9611 H           1 KDA       0.2100
     56 H24        36.4259   -4.6582   -1.4863 H           1 KDA       0.0584
     57 H25        35.9329   -6.2711   -0.9539 H           1 KDA       0.0584
     58 H26        37.6432   -5.4251    0.2343 H           1 KDA       0.2095
@<TRIPOS>BOND
     1     1     2  ar
     2     1     3  ar
     3     1     4   1
     4     4     5   1
     5     4    11   1
     6     4    16   1
     7     5     6   1
     8     6     7   1
     9     6     8   1
    10     8     9   1
    11     8    10   1
    12    10    11   1
    13    10    12   1
    14    12    13   1
    15    12    14   1
    16    14    15   1
    17    15    20   1
    18    16    17   1
    19    17    18   2
    20    18    19   1
    21    20    21   1
    22    20    24   1
    23    20    28   1
    24    21    22  ar
    25    21    23  ar
    26    24    25   2
    27    25    26   1
    28    26    27   1
    29    27    28   1
    30    27    29   1
    31    29    30   1
    32    29    31   1
    33    31    32   1
    34     5    33   1
    35     5    34   1
    36     6    35   1
    37     7    36   1
    38     8    37   1
    39     9    38   1
    40    10    39   1
    41    12    40   1
    42    13    41   1
    43    14    42   1
    44    14    43   1
    45    17    44   1
    46    18    45   1
    47    19    46   1
    48    19    47   1
    49    19    48   1
    50    24    49   1
    51    25    50   1
    52    26    51   1
    53    26    52   1
    54    27    53   1
    55    29    54   1
    56    30    55   1
    57    31    56   1
    58    31    57   1
    59    32    58   1
@<TRIPOS>SUBSTRUCTURE
     1  KDA      1

