@<TRIPOS>MOLECULE
3bpc_ligand_014
    58    59
SMALL
GAST_HUCK
****
This file was generated by PARSER (from files_GN.cpp)

@<TRIPOS>ATOM
      1 C1         28.1278   -3.2875   -0.9339 C.2         1 KDA       0.1089
      2 O1A        29.0656   -3.6867   -1.8211 O.co2       1 KDA      -0.5423
      3 O1B        27.6060   -2.0528   -1.1236 O.co2       1 KDA      -0.5423
      4 C2         27.9043   -4.0890    0.3005 C.3         1 KDA       0.2378
      5 C3         27.9380   -5.6152   -0.0756 C.3         1 KDA       0.0399
      6 C4         28.0143   -6.5212    1.1866 C.3         1 KDA       0.0884
      7 O4         28.1277   -7.9018    0.8327 O.3         1 KDA      -0.3891
      8 C5         29.1822   -6.0869    2.1250 C.3         1 KDA       0.1096
      9 O5         30.4663   -6.4081    1.5751 O.3         1 KDA      -0.3866
     10 C6         29.0438   -4.5677    2.4391 C.3         1 KDA       0.1173
     11 O6         28.9873   -3.7851    1.2155 O.3         1 KDA      -0.3347
     12 C7         30.1465   -3.9928    3.3828 C.3         1 KDA       0.1055
     13 O7         29.5826   -2.8763    4.0881 O.3         1 KDA      -0.3869
     14 C8         31.4774   -3.5685    2.6892 C.3         1 KDA       0.0619
     15 O8         31.8542   -2.2266    3.0886 O.3         1 KDA      -0.4032
     16 O2         26.5978   -3.8478    0.8948 O.3         1 KDA      -0.3023
     17 C9         26.3254   -2.6414    1.4381 C.2         1 KDA       0.0369
     18 C10        25.2885   -2.4936    2.2747 C.2         1 KDA      -0.0824
     19 C11        24.4612   -3.5990    2.7116 C.3         1 KDA      -0.0537
     20 C2         32.2023   -1.2196    2.1037 C.3         1 KDA       0.1781
     21 C1         31.1642   -1.0242    1.0619 C.2         1 KDA       0.0464
     22 O1B        29.9271   -1.5416    1.2533 O.co2       1 KDA      -0.5651
     23 O1A        31.2423    0.0663    0.2689 O.co2       1 KDA      -0.5651
     24 C3         33.5120   -1.5209    1.5183 C.2         1 KDA      -0.0254
     25 C4         34.6167   -0.8164    1.8138 C.2         1 KDA      -0.0084
     26 C5         34.6032    0.3360    2.6982 C.3         1 KDA       0.0514
     27 C6         33.3381    0.3759    3.6056 C.3         1 KDA       0.0994
     28 O6         32.1823    0.0441    2.8127 O.3         1 KDA      -0.3957
     29 C7         33.0341    1.7509    4.2633 C.3         1 KDA       0.1076
     30 O7         32.6817    2.7133    3.2614 O.3         1 KDA      -0.3866
     31 C8         34.1712    2.3602    5.1165 C.3         1 KDA       0.0729
     32 O8         34.6237    1.4567    6.1206 O.3         1 KDA      -0.3924
     33 H1         28.8115   -5.8290   -0.6959 H           1 KDA       0.0340
     34 H2         27.0484   -5.8751   -0.6572 H           1 KDA       0.0340
     35 H3         27.0740   -6.4186    1.7406 H           1 KDA       0.0621
     36 H4         28.7681   -7.9261    0.0908 H           1 KDA       0.2099
     37 H5         29.0956   -6.6498    3.0612 H           1 KDA       0.0646
     38 H6         30.3361   -6.5828    0.6154 H           1 KDA       0.2100
     39 H7         28.0912   -4.4579    2.9676 H           1 KDA       0.0649
     40 H8         30.3807   -4.7342    4.1536 H           1 KDA       0.0642
     41 H9         28.9728   -3.2669    4.7502 H           1 KDA       0.2100
     42 H10        31.4058   -3.6538    1.6038 H           1 KDA       0.0570
     43 H11        32.2870   -4.2350    2.9984 H           1 KDA       0.0570
     44 H12        26.8800   -1.8401    1.2204 H           1 KDA       0.0849
     45 H13        25.0943   -1.5882    2.6394 H           1 KDA       0.0331
     46 H14        23.6556   -3.2375    3.3538 H           1 KDA       0.0321
     47 H15        25.0686   -4.3063    3.2793 H           1 KDA       0.0321
     48 H16        24.0185   -4.1128    1.8555 H           1 KDA       0.0321
     49 H17        33.5849   -2.3120    0.9093 H           1 KDA       0.0527
     50 H18        35.4623   -1.0686    1.3640 H           1 KDA       0.1535
     51 H19        34.6592    1.2341    2.0818 H           1 KDA       0.0720
     52 H20        35.4923    0.2904    3.3234 H           1 KDA       0.0720
     53 H21        33.4441   -0.3704    4.3949 H           1 KDA       0.0667
     54 H22        32.1610    1.6192    4.9136 H           1 KDA       0.0646
     55 H23        31.9188    3.2125    3.6406 H           1 KDA       0.2100
     56 H24        33.8014    3.2678    5.6080 H           1 KDA       0.0584
     57 H25        35.0147    2.6349    4.4766 H           1 KDA       0.0584
     58 H26        35.3332    1.9479    6.5903 H           1 KDA       0.2095
@<TRIPOS>BOND
     1     1     2  ar
     2     1     3  ar
     3     1     4   1
     4     4     5   1
     5     4    11   1
     6     4    16   1
     7     5     6   1
     8     6     7   1
     9     6     8   1
    10     8     9   1
    11     8    10   1
    12    10    11   1
    13    10    12   1
    14    12    13   1
    15    12    14   1
    16    14    15   1
    17    15    20   1
    18    16    17   1
    19    17    18   2
    20    18    19   1
    21    20    21   1
    22    20    24   1
    23    20    28   1
    24    21    22  ar
    25    21    23  ar
    26    24    25   2
    27    25    26   1
    28    26    27   1
    29    27    28   1
    30    27    29   1
    31    29    30   1
    32    29    31   1
    33    31    32   1
    34     5    33   1
    35     5    34   1
    36     6    35   1
    37     7    36   1
    38     8    37   1
    39     9    38   1
    40    10    39   1
    41    12    40   1
    42    13    41   1
    43    14    42   1
    44    14    43   1
    45    17    44   1
    46    18    45   1
    47    19    46   1
    48    19    47   1
    49    19    48   1
    50    24    49   1
    51    25    50   1
    52    26    51   1
    53    26    52   1
    54    27    53   1
    55    29    54   1
    56    30    55   1
    57    31    56   1
    58    31    57   1
    59    32    58   1
@<TRIPOS>SUBSTRUCTURE
     1  KDA      1

