@<TRIPOS>MOLECULE
3bpc_ligand_006
    58    59
SMALL
GAST_HUCK
****
This file was generated by PARSER (from files_GN.cpp)

@<TRIPOS>ATOM
      1 C1         31.6726   -2.2127   -1.1997 C.2         1 KDA       0.1089
      2 O1A        32.7451   -1.3830   -1.1064 O.co2       1 KDA      -0.5423
      3 O1B        31.8341   -3.3937   -1.8378 O.co2       1 KDA      -0.5423
      4 C2         30.4071   -1.8843   -0.4820 C.3         1 KDA       0.2378
      5 C3         29.6266   -0.7940   -1.2837 C.3         1 KDA       0.0399
      6 C4         28.2269   -0.5485   -0.6679 C.3         1 KDA       0.0884
      7 O4         27.5307    0.3855   -1.4734 O.3         1 KDA      -0.3891
      8 C5         27.4330   -1.8739   -0.5332 C.3         1 KDA       0.1096
      9 O5         27.1053   -2.3381   -1.8399 O.3         1 KDA      -0.3866
     10 C6         28.3028   -2.8977    0.2480 C.3         1 KDA       0.1173
     11 O6         29.5812   -3.0877   -0.4063 O.3         1 KDA      -0.3347
     12 C7         27.6584   -4.3038    0.4706 C.3         1 KDA       0.1055
     13 O7         26.8074   -4.7387   -0.5871 O.3         1 KDA      -0.3869
     14 C8         26.8554   -4.4195    1.7901 C.3         1 KDA       0.0619
     15 O8         27.5286   -3.5940    2.7803 O.3         1 KDA      -0.4032
     16 O2         30.7057   -1.3022    0.8222 O.3         1 KDA      -0.3023
     17 C9         31.5043   -1.9573    1.6872 C.2         1 KDA       0.0369
     18 C10        32.1927   -1.2662    2.6071 C.2         1 KDA      -0.0824
     19 C11        32.1064    0.1708    2.7484 C.3         1 KDA      -0.0537
     20 C2         27.2968   -3.7769    4.1995 C.3         1 KDA       0.1781
     21 C1         26.7648   -5.1374    4.4827 C.2         1 KDA       0.0464
     22 O1B        27.6139   -6.1900    4.4787 O.co2       1 KDA      -0.5651
     23 O1A        25.4719   -5.4232    4.1972 O.co2       1 KDA      -0.5651
     24 C3         26.4445   -2.7207    4.7481 C.2         1 KDA      -0.0254
     25 C4         26.9235   -1.7508    5.5447 C.2         1 KDA      -0.0084
     26 C5         28.3264   -1.6285    5.8947 C.3         1 KDA       0.0514
     27 C6         29.2329   -2.4647    4.9388 C.3         1 KDA       0.0994
     28 O6         28.6262   -3.7686    4.7762 O.3         1 KDA      -0.3957
     29 C7         30.6991   -2.6818    5.4098 C.3         1 KDA       0.1076
     30 O7         30.7482   -3.6404    6.4690 O.3         1 KDA      -0.3866
     31 C8         31.4580   -1.3999    5.8431 C.3         1 KDA       0.0729
     32 O8         31.1901   -1.0441    7.2013 O.3         1 KDA      -0.3924
     33 H1         29.5257   -1.1192   -2.3255 H           1 KDA       0.0340
     34 H2         30.2069    0.1444   -1.2740 H           1 KDA       0.0340
     35 H3         28.3517   -0.0983    0.3160 H           1 KDA       0.0621
     36 H4         26.9111    0.8264   -0.8631 H           1 KDA       0.2099
     37 H5         26.5140   -1.6794    0.0147 H           1 KDA       0.0646
     38 H6         26.2255   -2.7685   -1.7634 H           1 KDA       0.2100
     39 H7         28.4752   -2.4990    1.2523 H           1 KDA       0.0649
     40 H8         28.4541   -5.0533    0.5359 H           1 KDA       0.0642
     41 H9         27.3956   -5.0092   -1.3297 H           1 KDA       0.2100
     42 H10        26.8707   -5.4714    2.1199 H           1 KDA       0.0570
     43 H11        25.8084   -4.1068    1.6459 H           1 KDA       0.0570
     44 H12        31.5903   -2.9545    1.6593 H           1 KDA       0.0849
     45 H13        32.7834   -1.7690    3.2285 H           1 KDA       0.0331
     46 H14        32.7796    0.5208    3.5347 H           1 KDA       0.0321
     47 H15        31.0863    0.4601    3.0108 H           1 KDA       0.0321
     48 H16        32.3830    0.6655    1.8157 H           1 KDA       0.0321
     49 H17        25.4879   -2.6964    4.4679 H           1 KDA       0.0527
     50 H18        26.2782   -1.0874    5.8957 H           1 KDA       0.1535
     51 H19        28.4509   -1.9585    6.9256 H           1 KDA       0.0720
     52 H20        28.6075   -0.5746    5.8221 H           1 KDA       0.0720
     53 H21        29.2789   -1.9388    3.9720 H           1 KDA       0.0667
     54 H22        31.2419   -3.1149    4.5578 H           1 KDA       0.0646
     55 H23        31.6873   -3.9227    6.5090 H           1 KDA       0.2100
     56 H24        31.1728   -0.5590    5.2039 H           1 KDA       0.0584
     57 H25        32.5384   -1.5647    5.7373 H           1 KDA       0.0584
     58 H26        31.5907   -1.7680    7.7251 H           1 KDA       0.2095
@<TRIPOS>BOND
     1     1     2  ar
     2     1     3  ar
     3     1     4   1
     4     4     5   1
     5     4    11   1
     6     4    16   1
     7     5     6   1
     8     6     7   1
     9     6     8   1
    10     8     9   1
    11     8    10   1
    12    10    11   1
    13    10    12   1
    14    12    13   1
    15    12    14   1
    16    14    15   1
    17    15    20   1
    18    16    17   1
    19    17    18   2
    20    18    19   1
    21    20    21   1
    22    20    24   1
    23    20    28   1
    24    21    22  ar
    25    21    23  ar
    26    24    25   2
    27    25    26   1
    28    26    27   1
    29    27    28   1
    30    27    29   1
    31    29    30   1
    32    29    31   1
    33    31    32   1
    34     5    33   1
    35     5    34   1
    36     6    35   1
    37     7    36   1
    38     8    37   1
    39     9    38   1
    40    10    39   1
    41    12    40   1
    42    13    41   1
    43    14    42   1
    44    14    43   1
    45    17    44   1
    46    18    45   1
    47    19    46   1
    48    19    47   1
    49    19    48   1
    50    24    49   1
    51    25    50   1
    52    26    51   1
    53    26    52   1
    54    27    53   1
    55    29    54   1
    56    30    55   1
    57    31    56   1
    58    31    57   1
    59    32    58   1
@<TRIPOS>SUBSTRUCTURE
     1  KDA      1

