@<TRIPOS>MOLECULE
3bpc_ligand_005
    58    59
SMALL
GAST_HUCK
****
This file was generated by PARSER (from files_GN.cpp)

@<TRIPOS>ATOM
      1 C1         30.7879   -0.7499    0.6548 C.2         1 KDA       0.1089
      2 O1A        30.8548    0.5805    0.8849 O.co2       1 KDA      -0.5423
      3 O1B        31.8526   -1.3302    0.0542 O.co2       1 KDA      -0.5423
      4 C2         29.5132   -1.4818    0.8941 C.3         1 KDA       0.2378
      5 C3         28.4757   -0.9388   -0.1406 C.3         1 KDA       0.0399
      6 C4         27.2068   -1.8255   -0.1932 C.3         1 KDA       0.0884
      7 O4         26.3561   -1.3627   -1.2451 O.3         1 KDA      -0.3891
      8 C5         27.5950   -3.3079   -0.4309 C.3         1 KDA       0.1096
      9 O5         28.1934   -3.4216   -1.7234 O.3         1 KDA      -0.3866
     10 C6         28.5758   -3.7830    0.6792 C.3         1 KDA       0.1173
     11 O6         29.7376   -2.9079    0.7007 O.3         1 KDA      -0.3347
     12 C7         29.0628   -5.2579    0.4940 C.3         1 KDA       0.1055
     13 O7         28.0961   -6.0887   -0.1615 O.3         1 KDA      -0.3869
     14 C8         29.3841   -5.9667    1.8359 C.3         1 KDA       0.0619
     15 O8         30.1528   -5.1370    2.7288 O.3         1 KDA      -0.4032
     16 O2         28.9789   -1.1981    2.2104 O.3         1 KDA      -0.3023
     17 C9         29.7992   -1.3503    3.2647 C.2         1 KDA       0.0369
     18 C10        29.9643   -0.3693    4.1645 C.2         1 KDA      -0.0824
     19 C11        29.2922    0.9108    4.0776 C.3         1 KDA      -0.0537
     20 C2         31.5266   -5.4734    3.0330 C.3         1 KDA       0.1781
     21 C1         31.6709   -6.6565    3.9176 C.2         1 KDA       0.0464
     22 O1B        30.6015   -7.2516    4.4935 O.co2       1 KDA      -0.5651
     23 O1A        32.9000   -7.1235    4.2369 O.co2       1 KDA      -0.5651
     24 C3         32.0293   -4.3181    3.7782 C.2         1 KDA      -0.0254
     25 C4         32.9801   -3.5035    3.2904 C.2         1 KDA      -0.0084
     26 C5         33.5823   -3.6950    1.9837 C.3         1 KDA       0.0514
     27 C6         32.7148   -4.6134    1.0666 C.3         1 KDA       0.0994
     28 O6         32.2779   -5.7658    1.8206 O.3         1 KDA      -0.3957
     29 C7         33.4554   -5.0510   -0.2308 C.3         1 KDA       0.1076
     30 O7         32.5096   -5.2116   -1.2928 O.3         1 KDA      -0.3866
     31 C8         34.2908   -6.3553   -0.1236 C.3         1 KDA       0.0729
     32 O8         34.7878   -6.6228    1.1858 O.3         1 KDA      -0.3924
     33 H1         28.9174   -0.9199   -1.1459 H           1 KDA       0.0340
     34 H2         28.1828    0.0881    0.1076 H           1 KDA       0.0340
     35 H3         26.6586   -1.7332    0.7526 H           1 KDA       0.0621
     36 H4         25.5032   -1.8097   -1.0901 H           1 KDA       0.2099
     37 H5         26.6856   -3.9113   -0.4073 H           1 KDA       0.0646
     38 H6         28.0634   -4.3507   -2.0002 H           1 KDA       0.2100
     39 H7         28.0523   -3.7125    1.6387 H           1 KDA       0.0649
     40 H8         29.9744   -5.2605   -0.1182 H           1 KDA       0.0642
     41 H9         28.1776   -5.9096   -1.1230 H           1 KDA       0.2100
     42 H10        29.8802   -6.9216    1.6229 H           1 KDA       0.0570
     43 H11        28.4492   -6.1922    2.3510 H           1 KDA       0.0570
     44 H12        30.2936   -2.2055    3.3904 H           1 KDA       0.0849
     45 H13        30.5938   -0.5195    4.9214 H           1 KDA       0.0331
     46 H14        29.5978    1.5637    4.8991 H           1 KDA       0.0321
     47 H15        28.2100    0.7670    4.1325 H           1 KDA       0.0321
     48 H16        29.5385    1.4078    3.1355 H           1 KDA       0.0321
     49 H17        31.6129   -4.0835    4.6558 H           1 KDA       0.0527
     50 H18        33.2955   -2.7428    3.8532 H           1 KDA       0.1535
     51 H19        34.5792   -4.1103    2.1370 H           1 KDA       0.0720
     52 H20        33.6941   -2.7133    1.5056 H           1 KDA       0.0720
     53 H21        31.8291   -4.0376    0.7639 H           1 KDA       0.0667
     54 H22        34.1287   -4.2455   -0.5440 H           1 KDA       0.0646
     55 H23        31.8854   -5.9118   -0.9947 H           1 KDA       0.2100
     56 H24        35.1596   -6.2667   -0.7802 H           1 KDA       0.0584
     57 H25        33.6964   -7.2135   -0.4541 H           1 KDA       0.0584
     58 H26        34.0030   -6.8679    1.7210 H           1 KDA       0.2095
@<TRIPOS>BOND
     1     1     2  ar
     2     1     3  ar
     3     1     4   1
     4     4     5   1
     5     4    11   1
     6     4    16   1
     7     5     6   1
     8     6     7   1
     9     6     8   1
    10     8     9   1
    11     8    10   1
    12    10    11   1
    13    10    12   1
    14    12    13   1
    15    12    14   1
    16    14    15   1
    17    15    20   1
    18    16    17   1
    19    17    18   2
    20    18    19   1
    21    20    21   1
    22    20    24   1
    23    20    28   1
    24    21    22  ar
    25    21    23  ar
    26    24    25   2
    27    25    26   1
    28    26    27   1
    29    27    28   1
    30    27    29   1
    31    29    30   1
    32    29    31   1
    33    31    32   1
    34     5    33   1
    35     5    34   1
    36     6    35   1
    37     7    36   1
    38     8    37   1
    39     9    38   1
    40    10    39   1
    41    12    40   1
    42    13    41   1
    43    14    42   1
    44    14    43   1
    45    17    44   1
    46    18    45   1
    47    19    46   1
    48    19    47   1
    49    19    48   1
    50    24    49   1
    51    25    50   1
    52    26    51   1
    53    26    52   1
    54    27    53   1
    55    29    54   1
    56    30    55   1
    57    31    56   1
    58    31    57   1
    59    32    58   1
@<TRIPOS>SUBSTRUCTURE
     1  KDA      1

