@<TRIPOS>MOLECULE
3bpc_ligand_017
    58    59
SMALL
GAST_HUCK
****
This file was generated by PARSER (from files_GN.cpp)

@<TRIPOS>ATOM
      1 C1         25.5853   -3.1967    2.9039 C.2         1 KDA       0.1089
      2 O1A        25.2932   -2.0019    3.4738 O.co2       1 KDA      -0.5423
      3 O1B        24.9176   -4.2756    3.3841 O.co2       1 KDA      -0.5423
      4 C2         26.8922   -3.3717    2.2119 C.3         1 KDA       0.2378
      5 C3         26.7551   -4.5603    1.2170 C.3         1 KDA       0.0399
      6 C4         27.9874   -4.6927    0.2846 C.3         1 KDA       0.0884
      7 O4         27.7420   -5.7215   -0.6747 O.3         1 KDA      -0.3891
      8 C5         28.3150   -3.3428   -0.4164 C.3         1 KDA       0.1096
      9 O5         27.3689   -3.0439   -1.4511 O.3         1 KDA      -0.3866
     10 C6         28.4001   -2.1930    0.6459 C.3         1 KDA       0.1173
     11 O6         27.2007   -2.1688    1.4678 O.3         1 KDA      -0.3347
     12 C7         28.6307   -0.7616    0.0599 C.3         1 KDA       0.1055
     13 O7         27.8332   -0.5505   -1.1072 O.3         1 KDA      -0.3869
     14 C8         30.1165   -0.4622   -0.3044 C.3         1 KDA       0.0619
     15 O8         31.0359   -1.0201    0.6659 O.3         1 KDA      -0.4032
     16 O2         27.9621   -3.7339    3.1212 O.3         1 KDA      -0.3023
     17 C9         27.8502   -3.3564    4.4069 C.2         1 KDA       0.0369
     18 C10        27.7417   -4.2843    5.3791 C.2         1 KDA      -0.0824
     19 C11        27.8363   -5.7065    5.1292 C.3         1 KDA      -0.0537
     20 C2         32.0223   -2.0364    0.3517 C.3         1 KDA       0.1781
     21 C1         32.2211   -2.3043   -1.0981 C.2         1 KDA       0.0464
     22 O1B        31.8960   -3.4858   -1.6784 O.co2       1 KDA      -0.5651
     23 O1A        32.7172   -1.3342   -1.8971 O.co2       1 KDA      -0.5651
     24 C3         31.7144   -3.2509    1.1068 C.2         1 KDA      -0.0254
     25 C4         32.3844   -3.6025    2.2147 C.2         1 KDA      -0.0084
     26 C5         33.4623   -2.8050    2.7824 C.3         1 KDA       0.0514
     27 C6         33.5729   -1.3892    2.1511 C.3         1 KDA       0.0994
     28 O6         33.2985   -1.4775    0.7433 O.3         1 KDA      -0.3957
     29 C7         34.9380   -0.6785    2.3895 C.3         1 KDA       0.1076
     30 O7         34.7910    0.7214    2.1685 O.3         1 KDA      -0.3866
     31 C8         36.1213   -1.1666    1.5113 C.3         1 KDA       0.0729
     32 O8         36.0919   -0.5757    0.2185 O.3         1 KDA      -0.3924
     33 H1         25.8695   -4.4251    0.5909 H           1 KDA       0.0340
     34 H2         26.6440   -5.4975    1.7720 H           1 KDA       0.0340
     35 H3         28.8585   -5.0074    0.8766 H           1 KDA       0.0621
     36 H4         28.3636   -5.5496   -1.4167 H           1 KDA       0.2099
     37 H5         29.2873   -3.4548   -0.9089 H           1 KDA       0.0646
     38 H6         26.4825   -3.0761   -1.0271 H           1 KDA       0.2100
     39 H7         29.2546   -2.3927    1.3090 H           1 KDA       0.0649
     40 H8         28.3204   -0.0343    0.8175 H           1 KDA       0.0642
     41 H9         27.1744    0.1341   -0.8516 H           1 KDA       0.2100
     42 H10        30.2697    0.6251   -0.2796 H           1 KDA       0.0570
     43 H11        30.3151   -0.7853   -1.3283 H           1 KDA       0.0570
     44 H12        27.8003   -2.3921    4.6410 H           1 KDA       0.0849
     45 H13        27.5877   -3.9739    6.3091 H           1 KDA       0.0331
     46 H14        27.6417   -6.2671    6.0461 H           1 KDA       0.0321
     47 H15        28.8429   -5.9542    4.7832 H           1 KDA       0.0321
     48 H16        27.1164   -6.0182    4.3675 H           1 KDA       0.0321
     49 H17        30.9791   -3.8330    0.7879 H           1 KDA       0.0527
     50 H18        32.1536   -4.4685    2.6463 H           1 KDA       0.1535
     51 H19        34.3862   -3.3744    2.6481 H           1 KDA       0.0720
     52 H20        33.2912   -2.7042    3.8590 H           1 KDA       0.0720
     53 H21        32.7992   -0.7678    2.6120 H           1 KDA       0.0667
     54 H22        35.2220   -0.8088    3.4396 H           1 KDA       0.0646
     55 H23        34.2395    1.0604    2.9065 H           1 KDA       0.2100
     56 H24        36.1054   -2.2512    1.4035 H           1 KDA       0.0584
     57 H25        37.0654   -0.8919    1.9828 H           1 KDA       0.0584
     58 H26        36.8859   -0.9277   -0.2495 H           1 KDA       0.2095
@<TRIPOS>BOND
     1     1     2  ar
     2     1     3  ar
     3     1     4   1
     4     4     5   1
     5     4    11   1
     6     4    16   1
     7     5     6   1
     8     6     7   1
     9     6     8   1
    10     8     9   1
    11     8    10   1
    12    10    11   1
    13    10    12   1
    14    12    13   1
    15    12    14   1
    16    14    15   1
    17    15    20   1
    18    16    17   1
    19    17    18   2
    20    18    19   1
    21    20    21   1
    22    20    24   1
    23    20    28   1
    24    21    22  ar
    25    21    23  ar
    26    24    25   2
    27    25    26   1
    28    26    27   1
    29    27    28   1
    30    27    29   1
    31    29    30   1
    32    29    31   1
    33    31    32   1
    34     5    33   1
    35     5    34   1
    36     6    35   1
    37     7    36   1
    38     8    37   1
    39     9    38   1
    40    10    39   1
    41    12    40   1
    42    13    41   1
    43    14    42   1
    44    14    43   1
    45    17    44   1
    46    18    45   1
    47    19    46   1
    48    19    47   1
    49    19    48   1
    50    24    49   1
    51    25    50   1
    52    26    51   1
    53    26    52   1
    54    27    53   1
    55    29    54   1
    56    30    55   1
    57    31    56   1
    58    31    57   1
    59    32    58   1
@<TRIPOS>SUBSTRUCTURE
     1  KDA      1

