@<TRIPOS>MOLECULE
3bpc_ligand_026
    58    59
SMALL
GAST_HUCK
****
This file was generated by PARSER (from files_GN.cpp)

@<TRIPOS>ATOM
      1 C1         30.5638   -0.1839    0.8318 C.2         1 KDA       0.1089
      2 O1A        30.3016    0.6468   -0.2035 O.co2       1 KDA      -0.5423
      3 O1B        31.8767   -0.4114    1.0583 O.co2       1 KDA      -0.5423
      4 C2         29.6083   -1.2676    1.1854 C.3         1 KDA       0.2378
      5 C3         28.1068   -0.8657    0.9259 C.3         1 KDA       0.0399
      6 C4         27.1866   -2.1087    1.0275 C.3         1 KDA       0.0884
      7 O4         25.8492   -1.7182    0.7497 O.3         1 KDA      -0.3891
      8 C5         27.6645   -3.2146    0.0504 C.3         1 KDA       0.1096
      9 O5         27.4563   -2.8087   -1.3094 O.3         1 KDA      -0.3866
     10 C6         29.1641   -3.5394    0.3311 C.3         1 KDA       0.1173
     11 O6         29.9626   -2.3364    0.2736 O.3         1 KDA      -0.3347
     12 C7         29.7861   -4.5609   -0.6610 C.3         1 KDA       0.1055
     13 O7         28.9204   -5.6782   -0.8487 O.3         1 KDA      -0.3869
     14 C8         31.1515   -5.1243   -0.1803 C.3         1 KDA       0.0619
     15 O8         32.0938   -4.0715    0.1358 O.3         1 KDA      -0.4032
     16 O2         29.8917   -1.7487    2.5367 O.3         1 KDA      -0.3023
     17 C9         29.4690   -1.0254    3.5946 C.2         1 KDA       0.0369
     18 C10        30.2801   -0.6080    4.5780 C.2         1 KDA      -0.0824
     19 C11        31.7081   -0.8263    4.5972 C.3         1 KDA      -0.0537
     20 C2         33.3739   -4.3704    0.7727 C.3         1 KDA       0.1781
     21 C1         33.7265   -5.8134    0.9852 C.2         1 KDA       0.0464
     22 O1B        33.9252   -6.6214   -0.0855 O.co2       1 KDA      -0.5651
     23 O1A        33.8910   -6.3781    2.2089 O.co2       1 KDA      -0.5651
     24 C3         33.3405   -3.6459    2.0522 C.2         1 KDA      -0.0254
     25 C4         34.0194   -2.5040    2.2542 C.2         1 KDA      -0.0084
     26 C5         34.8672   -1.9006    1.2406 C.3         1 KDA       0.0514
     27 C6         34.5665   -2.4432   -0.1966 C.3         1 KDA       0.0994
     28 O6         34.4467   -3.8887   -0.0987 O.3         1 KDA      -0.3957
     29 C7         35.5748   -2.0280   -1.3266 C.3         1 KDA       0.1076
     30 O7         35.5816   -3.0376   -2.3381 O.3         1 KDA      -0.3866
     31 C8         37.0401   -1.7173   -0.9192 C.3         1 KDA       0.0729
     32 O8         37.6548   -2.8265   -0.2792 O.3         1 KDA      -0.3924
     33 H1         28.0030   -0.4491   -0.0817 H           1 KDA       0.0340
     34 H2         27.7751   -0.0899    1.6293 H           1 KDA       0.0340
     35 H3         27.2079   -2.4970    2.0495 H           1 KDA       0.0621
     36 H4         25.3484   -2.5494    0.6296 H           1 KDA       0.2099
     37 H5         27.0672   -4.1137    0.2278 H           1 KDA       0.0646
     38 H6         26.4789   -2.7828   -1.4167 H           1 KDA       0.2100
     39 H7         29.2320   -3.9652    1.3397 H           1 KDA       0.0649
     40 H8         29.9397   -4.0868   -1.6337 H           1 KDA       0.0642
     41 H9         28.2033   -5.3769   -1.4501 H           1 KDA       0.2100
     42 H10        31.5790   -5.7145   -1.0066 H           1 KDA       0.0570
     43 H11        31.0010   -5.7937    0.6887 H           1 KDA       0.0570
     44 H12        28.4889   -0.8900    3.7111 H           1 KDA       0.0849
     45 H13        29.8678   -0.1256    5.3429 H           1 KDA       0.0331
     46 H14        32.1394   -0.3899    5.5018 H           1 KDA       0.0321
     47 H15        32.1712   -0.3503    3.7320 H           1 KDA       0.0321
     48 H16        31.9305   -1.8975    4.5786 H           1 KDA       0.0321
     49 H17        32.7283   -3.9737    2.7720 H           1 KDA       0.0527
     50 H18        33.9833   -2.0914    3.1524 H           1 KDA       0.1535
     51 H19        35.9027   -2.1268    1.5310 H           1 KDA       0.0720
     52 H20        34.7264   -0.8178    1.2515 H           1 KDA       0.0720
     53 H21        33.5893   -2.0489   -0.4947 H           1 KDA       0.0667
     54 H22        35.1886   -1.1231   -1.7998 H           1 KDA       0.0646
     55 H23        36.1906   -2.7137   -3.0296 H           1 KDA       0.2100
     56 H24        37.0589   -0.8575   -0.2455 H           1 KDA       0.0584
     57 H25        37.6215   -1.4640   -1.8036 H           1 KDA       0.0584
     58 H26        38.5358   -2.5018   -0.0026 H           1 KDA       0.2095
@<TRIPOS>BOND
     1     1     2  ar
     2     1     3  ar
     3     1     4   1
     4     4     5   1
     5     4    11   1
     6     4    16   1
     7     5     6   1
     8     6     7   1
     9     6     8   1
    10     8     9   1
    11     8    10   1
    12    10    11   1
    13    10    12   1
    14    12    13   1
    15    12    14   1
    16    14    15   1
    17    15    20   1
    18    16    17   1
    19    17    18   2
    20    18    19   1
    21    20    21   1
    22    20    24   1
    23    20    28   1
    24    21    22  ar
    25    21    23  ar
    26    24    25   2
    27    25    26   1
    28    26    27   1
    29    27    28   1
    30    27    29   1
    31    29    30   1
    32    29    31   1
    33    31    32   1
    34     5    33   1
    35     5    34   1
    36     6    35   1
    37     7    36   1
    38     8    37   1
    39     9    38   1
    40    10    39   1
    41    12    40   1
    42    13    41   1
    43    14    42   1
    44    14    43   1
    45    17    44   1
    46    18    45   1
    47    19    46   1
    48    19    47   1
    49    19    48   1
    50    24    49   1
    51    25    50   1
    52    26    51   1
    53    26    52   1
    54    27    53   1
    55    29    54   1
    56    30    55   1
    57    31    56   1
    58    31    57   1
    59    32    58   1
@<TRIPOS>SUBSTRUCTURE
     1  KDA      1

