@<TRIPOS>MOLECULE
3bpc_ligand_019
    58    59
SMALL
GAST_HUCK
****
This file was generated by PARSER (from files_GN.cpp)

@<TRIPOS>ATOM
      1 C1         31.5207   -2.5063   -0.9978 C.2         1 KDA       0.1089
      2 O1A        32.5886   -1.6792   -1.0703 O.co2       1 KDA      -0.5423
      3 O1B        31.5838   -3.6863   -1.6538 O.co2       1 KDA      -0.5423
      4 C2         30.2928   -2.0770   -0.2868 C.3         1 KDA       0.2378
      5 C3         29.6438   -0.9167   -1.1071 C.3         1 KDA       0.0399
      6 C4         28.2437   -0.5487   -0.5568 C.3         1 KDA       0.0884
      7 O4         27.6487    0.4223   -1.4113 O.3         1 KDA      -0.3891
      8 C5         27.3421   -1.8048   -0.4468 C.3         1 KDA       0.1096
      9 O5         27.0488   -2.2776   -1.7614 O.3         1 KDA      -0.3866
     10 C6         28.0683   -2.8986    0.3914 C.3         1 KDA       0.1173
     11 O6         29.3529   -3.1907   -0.2072 O.3         1 KDA      -0.3347
     12 C7         27.2398   -4.2096    0.6153 C.3         1 KDA       0.1055
     13 O7         26.6535   -4.7161   -0.5860 O.3         1 KDA      -0.3869
     14 C8         26.1241   -4.1232    1.7127 C.3         1 KDA       0.0619
     15 O8         25.9506   -2.7717    2.1988 O.3         1 KDA      -0.4032
     16 O2         30.6586   -1.5351    1.0088 O.3         1 KDA      -0.3023
     17 C9         31.1169   -2.3775    1.9496 C.2         1 KDA       0.0369
     18 C10        32.3039   -2.1924    2.5468 C.2         1 KDA      -0.0824
     19 C11        33.2678   -1.1921    2.1345 C.3         1 KDA      -0.0537
     20 C2         25.4428   -2.5313    3.5322 C.3         1 KDA       0.1781
     21 C1         23.9599   -2.6884    3.5527 C.2         1 KDA       0.0464
     22 O1B        23.4332   -3.9354    3.5882 O.co2       1 KDA      -0.5651
     23 O1A        23.1273   -1.7069    3.1159 O.co2       1 KDA      -0.5651
     24 C3         25.8375   -1.1510    3.8316 C.2         1 KDA      -0.0254
     25 C4         26.8923   -0.8698    4.6132 C.2         1 KDA      -0.0084
     26 C5         27.6855   -1.8833    5.2832 C.3         1 KDA       0.0514
     27 C6         27.3983   -3.3256    4.7677 C.3         1 KDA       0.0994
     28 O6         25.9788   -3.4542    4.5259 O.3         1 KDA      -0.3957
     29 C7         27.8439   -4.4260    5.7814 C.3         1 KDA       0.1076
     30 O7         29.2547   -4.3345    6.0327 O.3         1 KDA      -0.3866
     31 C8         27.5483   -5.8852    5.3275 C.3         1 KDA       0.0729
     32 O8         26.2279   -6.0104    4.7780 O.3         1 KDA      -0.3924
     33 H1         29.5384   -1.2163   -2.1582 H           1 KDA       0.0340
     34 H2         30.2820   -0.0261   -1.0778 H           1 KDA       0.0340
     35 H3         28.3575   -0.0929    0.4297 H           1 KDA       0.0621
     36 H4         26.9237    0.8108   -0.8786 H           1 KDA       0.2099
     37 H5         26.4010   -1.5192    0.0287 H           1 KDA       0.0646
     38 H6         26.1851   -2.7351   -1.6994 H           1 KDA       0.2100
     39 H7         28.2677   -2.4914    1.3853 H           1 KDA       0.0649
     40 H8         27.9504   -4.9745    0.9413 H           1 KDA       0.0642
     41 H9         27.3792   -4.9280   -1.2043 H           1 KDA       0.2100
     42 H10        26.3919   -4.8038    2.5309 H           1 KDA       0.0570
     43 H11        25.1582   -4.4606    1.3212 H           1 KDA       0.0570
     44 H12        30.5163   -3.0892    2.2993 H           1 KDA       0.0849
     45 H13        32.5454   -2.7899    3.3080 H           1 KDA       0.0331
     46 H14        34.1097   -1.1661    2.8309 H           1 KDA       0.0321
     47 H15        32.8090   -0.2010    2.1079 H           1 KDA       0.0321
     48 H16        33.6515   -1.4383    1.1427 H           1 KDA       0.0321
     49 H17        25.3842   -0.4001    3.3559 H           1 KDA       0.0527
     50 H18        27.1213    0.0830    4.7682 H           1 KDA       0.1535
     51 H19        27.4635   -1.8160    6.3550 H           1 KDA       0.0720
     52 H20        28.7488   -1.6598    5.1348 H           1 KDA       0.0720
     53 H21        27.9553   -3.4974    3.8394 H           1 KDA       0.0667
     54 H22        27.3274   -4.2624    6.7407 H           1 KDA       0.0646
     55 H23        29.3868   -3.4579    6.4566 H           1 KDA       0.2100
     56 H24        27.6310   -6.5568    6.1985 H           1 KDA       0.0584
     57 H25        28.2822   -6.1996    4.5751 H           1 KDA       0.0584
     58 H26        25.9520   -6.9567    4.9219 H           1 KDA       0.2095
@<TRIPOS>BOND
     1     1     2  ar
     2     1     3  ar
     3     1     4   1
     4     4     5   1
     5     4    11   1
     6     4    16   1
     7     5     6   1
     8     6     7   1
     9     6     8   1
    10     8     9   1
    11     8    10   1
    12    10    11   1
    13    10    12   1
    14    12    13   1
    15    12    14   1
    16    14    15   1
    17    15    20   1
    18    16    17   1
    19    17    18   2
    20    18    19   1
    21    20    21   1
    22    20    24   1
    23    20    28   1
    24    21    22  ar
    25    21    23  ar
    26    24    25   2
    27    25    26   1
    28    26    27   1
    29    27    28   1
    30    27    29   1
    31    29    30   1
    32    29    31   1
    33    31    32   1
    34     5    33   1
    35     5    34   1
    36     6    35   1
    37     7    36   1
    38     8    37   1
    39     9    38   1
    40    10    39   1
    41    12    40   1
    42    13    41   1
    43    14    42   1
    44    14    43   1
    45    17    44   1
    46    18    45   1
    47    19    46   1
    48    19    47   1
    49    19    48   1
    50    24    49   1
    51    25    50   1
    52    26    51   1
    53    26    52   1
    54    27    53   1
    55    29    54   1
    56    30    55   1
    57    31    56   1
    58    31    57   1
    59    32    58   1
@<TRIPOS>SUBSTRUCTURE
     1  KDA      1

