@<TRIPOS>MOLECULE
3bpc_ligand_001
    58    59
SMALL
GAST_HUCK
****
This file was generated by PARSER (from files_GN.cpp)

@<TRIPOS>ATOM
      1 C1         31.6872   -2.2862   -1.0009 C.2         1 KDA       0.1089
      2 O1A        31.8498   -3.4368   -1.6950 O.co2       1 KDA      -0.5423
      3 O1B        32.6537   -1.3489   -1.1128 O.co2       1 KDA      -0.5423
      4 C2         30.4073   -1.9608   -0.3232 C.3         1 KDA       0.2378
      5 C3         29.6175   -0.9152   -1.1811 C.3         1 KDA       0.0399
      6 C4         28.1906   -0.7060   -0.6156 C.3         1 KDA       0.0884
      7 O4         27.5091    0.2549   -1.4141 O.3         1 KDA      -0.3891
      8 C5         27.4121   -2.0505   -0.5547 C.3         1 KDA       0.1096
      9 O5         27.1176   -2.4645   -1.8863 O.3         1 KDA      -0.3866
     10 C6         28.2633   -3.1084    0.2172 C.3         1 KDA       0.1173
     11 O6         29.6108   -3.1746   -0.3150 O.3         1 KDA      -0.3347
     12 C7         27.6978   -4.5751    0.3110 C.3         1 KDA       0.1055
     13 O7         26.6302   -4.8522   -0.5943 O.3         1 KDA      -0.3869
     14 C8         27.2211   -4.9798    1.7290 C.3         1 KDA       0.0619
     15 O8         28.2622   -4.6758    2.6828 O.3         1 KDA      -0.4032
     16 O2         30.7093   -1.6254    1.0670 O.3         1 KDA      -0.3023
     17 C9         31.0145   -0.3597    1.4136 C.2         1 KDA       0.0369
     18 C10        32.1409    0.0204    2.0438 C.2         1 KDA      -0.0824
     19 C11        33.2233   -0.8654    2.4153 C.3         1 KDA      -0.0537
     20 C2         28.5225   -5.5303    3.8106 C.3         1 KDA       0.1781
     21 C1         27.4224   -5.5024    4.8043 C.2         1 KDA       0.0464
     22 O1B        26.1477   -5.7069    4.3987 O.co2       1 KDA      -0.5651
     23 O1A        27.6791   -5.8012    6.1007 O.co2       1 KDA      -0.5651
     24 C3         29.7519   -4.9705    4.3797 C.2         1 KDA      -0.0254
     25 C4         30.9452   -5.5711    4.2370 C.2         1 KDA      -0.0084
     26 C5         31.1211   -6.8287    3.5290 C.3         1 KDA       0.0514
     27 C6         29.8930   -7.1853    2.6407 C.3         1 KDA       0.0994
     28 O6         28.6895   -6.9091    3.3981 O.3         1 KDA      -0.3957
     29 C7         29.8719   -8.6450    2.0995 C.3         1 KDA       0.1076
     30 O7         28.8327   -8.7380    1.1221 O.3         1 KDA      -0.3866
     31 C8         29.6602   -9.7449    3.1822 C.3         1 KDA       0.0729
     32 O8         30.8701  -10.4485    3.4468 O.3         1 KDA      -0.3924
     33 H1         29.5319   -1.2707   -2.2113 H           1 KDA       0.0340
     34 H2         30.1456    0.0421   -1.2081 H           1 KDA       0.0340
     35 H3         28.2603   -0.2954    0.3932 H           1 KDA       0.0621
     36 H4         26.7673    0.5619   -0.8563 H           1 KDA       0.2099
     37 H5         26.4669   -1.8880   -0.0301 H           1 KDA       0.0646
     38 H6         26.2773   -2.9709   -1.8293 H           1 KDA       0.2100
     39 H7         28.3521   -2.7139    1.2300 H           1 KDA       0.0649
     40 H8         28.4911   -5.2799    0.0449 H           1 KDA       0.0642
     41 H9         27.0318   -4.8440   -1.4881 H           1 KDA       0.2100
     42 H10        26.9711   -6.0448    1.7228 H           1 KDA       0.0570
     43 H11        26.3250   -4.4138    1.9927 H           1 KDA       0.0570
     44 H12        30.3171    0.3344    1.2996 H           1 KDA       0.0849
     45 H13        32.2256    0.9839    2.2868 H           1 KDA       0.0331
     46 H14        34.0231   -0.2941    2.9013 H           1 KDA       0.0321
     47 H15        33.6381   -1.3527    1.5313 H           1 KDA       0.0321
     48 H16        32.8613   -1.6227    3.1147 H           1 KDA       0.0321
     49 H17        29.7176   -4.0799    4.8245 H           1 KDA       0.0527
     50 H18        31.7447   -5.1493    4.6530 H           1 KDA       0.1535
     51 H19        31.2950   -7.6050    4.2761 H           1 KDA       0.0720
     52 H20        32.0076   -6.7615    2.8936 H           1 KDA       0.0720
     53 H21        29.9199   -6.5264    1.7646 H           1 KDA       0.0667
     54 H22        30.8118   -8.8360    1.5742 H           1 KDA       0.0646
     55 H23        29.1360   -8.1905    0.3618 H           1 KDA       0.2100
     56 H24        28.9326  -10.4834    2.8368 H           1 KDA       0.0584
     57 H25        29.2818   -9.3250    4.1174 H           1 KDA       0.0584
     58 H26        31.4948   -9.7802    3.8019 H           1 KDA       0.2095
@<TRIPOS>BOND
     1     1     2  ar
     2     1     3  ar
     3     1     4   1
     4     4     5   1
     5     4    11   1
     6     4    16   1
     7     5     6   1
     8     6     7   1
     9     6     8   1
    10     8     9   1
    11     8    10   1
    12    10    11   1
    13    10    12   1
    14    12    13   1
    15    12    14   1
    16    14    15   1
    17    15    20   1
    18    16    17   1
    19    17    18   2
    20    18    19   1
    21    20    21   1
    22    20    24   1
    23    20    28   1
    24    21    22  ar
    25    21    23  ar
    26    24    25   2
    27    25    26   1
    28    26    27   1
    29    27    28   1
    30    27    29   1
    31    29    30   1
    32    29    31   1
    33    31    32   1
    34     5    33   1
    35     5    34   1
    36     6    35   1
    37     7    36   1
    38     8    37   1
    39     9    38   1
    40    10    39   1
    41    12    40   1
    42    13    41   1
    43    14    42   1
    44    14    43   1
    45    17    44   1
    46    18    45   1
    47    19    46   1
    48    19    47   1
    49    19    48   1
    50    24    49   1
    51    25    50   1
    52    26    51   1
    53    26    52   1
    54    27    53   1
    55    29    54   1
    56    30    55   1
    57    31    56   1
    58    31    57   1
    59    32    58   1
@<TRIPOS>SUBSTRUCTURE
     1  KDA      1

