@<TRIPOS>MOLECULE
3cft_ligand_028
    23    24
SMALL
GAST_HUCK
****
This file was generated by PARSER (from files_GN.cpp)

@<TRIPOS>ATOM
      1 C1        -23.3744   -1.2041  -23.1754 C.ar        1 MOL      -0.0429
      2 C2        -24.0167   -1.2992  -24.4132 C.ar        1 MOL      -0.0622
      3 C3        -23.2812   -1.5943  -25.5692 C.ar        1 MOL      -0.0544
      4 C4        -21.8863   -1.8269  -25.5056 C.ar        1 MOL       0.0090
      5 C5        -21.2287   -1.7504  -24.2330 C.ar        1 MOL      -0.0074
      6 C6        -21.9857   -1.4244  -23.0664 C.ar        1 MOL       0.0533
      7 C9        -19.1143   -2.3417  -25.3456 C.ar        1 MOL      -0.0784
      8 C10       -19.8364   -2.0186  -24.1874 C.ar        1 MOL      -0.0698
      9 O14       -22.4364   -0.8529  -20.3034 O.co2       1 MOL      -0.4801
     10 S11       -21.2946   -1.3146  -21.4630 S.o2        1 MOL      -0.1641
     11 O12       -20.0379   -0.1842  -21.4674 O.co2       1 MOL      -0.4801
     12 O13       -20.6771   -2.8332  -21.0482 O.co2       1 MOL      -0.4801
     13 C8        -19.7630   -2.4070  -26.5852 C.ar        1 MOL      -0.0461
     14 C7        -21.1449   -2.1560  -26.6756 C.ar        1 MOL       0.0492
     15 N15       -21.7035   -2.2591  -27.8993 N.pl3       1 MOL      -0.3324
     16 H1        -23.9416   -0.9786  -22.3540 H           1 MOL       0.0631
     17 H2        -25.0254   -1.1561  -24.4671 H           1 MOL       0.0585
     18 H3        -23.7868   -1.6567  -26.4546 H           1 MOL       0.0631
     19 H4        -18.1116   -2.5335  -25.2855 H           1 MOL       0.0573
     20 H5        -19.3152   -1.9914  -23.3106 H           1 MOL       0.0468
     21 H6        -19.2197   -2.6461  -27.4192 H           1 MOL       0.0463
     22 H7        -22.6529   -2.1108  -28.0257 H           1 MOL       0.1757
     23 H8        -21.1550   -2.4950  -28.6647 H           1 MOL       0.1757
@<TRIPOS>BOND
     1     1     2  ar
     2     1     6  ar
     3     2     3  ar
     4     3     4  ar
     5     4     5  ar
     6     4    14  ar
     7     5     6  ar
     8     5     8  ar
     9     6    10   1
    10     8     7  ar
    11     7    13  ar
    12    10     9  ar
    13    10    11  ar
    14    10    12  ar
    15    13    14  ar
    16    14    15   1
    17     1    16   1
    18     2    17   1
    19     3    18   1
    20     7    19   1
    21     8    20   1
    22    13    21   1
    23    15    22   1
    24    15    23   1
@<TRIPOS>SUBSTRUCTURE
     1  MOL      1

