@<TRIPOS>MOLECULE
3cft_ligand_031
    23    24
SMALL
GAST_HUCK
****
This file was generated by PARSER (from files_GN.cpp)

@<TRIPOS>ATOM
      1 C1        -24.1444    1.2312  -24.3126 C.ar        1 MOL      -0.0429
      2 C2        -24.8642    0.2837  -23.5796 C.ar        1 MOL      -0.0622
      3 C3        -24.1954   -0.6025  -22.7280 C.ar        1 MOL      -0.0544
      4 C4        -22.7875   -0.5800  -22.6090 C.ar        1 MOL       0.0090
      5 C5        -22.0442    0.3777  -23.3743 C.ar        1 MOL      -0.0074
      6 C6        -22.7390    1.2812  -24.2358 C.ar        1 MOL       0.0533
      7 C9        -19.9763   -0.5097  -22.3778 C.ar        1 MOL      -0.0784
      8 C10       -20.6325    0.3901  -23.2322 C.ar        1 MOL      -0.0698
      9 O14       -20.8155    1.7583  -26.2158 O.co2       1 MOL      -0.4801
     10 S11       -21.9498    2.4994  -25.2059 S.o2        1 MOL      -0.1641
     11 O12       -21.1566    3.5416  -24.1388 O.co2       1 MOL      -0.4801
     12 O13       -23.0314    3.3777  -26.1678 O.co2       1 MOL      -0.4801
     13 C8        -20.7142   -1.4460  -21.6414 C.ar        1 MOL      -0.0461
     14 C7        -22.1143   -1.4901  -21.7463 C.ar        1 MOL       0.0492
     15 N15       -22.7483   -2.4210  -21.0039 N.pl3       1 MOL      -0.3324
     16 H1        -24.6655    1.8823  -24.9026 H           1 MOL       0.0631
     17 H2        -25.8808    0.2418  -23.6642 H           1 MOL       0.0585
     18 H3        -24.7602   -1.2587  -22.1914 H           1 MOL       0.0631
     19 H4        -18.9582   -0.4819  -22.2967 H           1 MOL       0.0573
     20 H5        -20.0501    1.0546  -23.7426 H           1 MOL       0.0468
     21 H6        -20.2253   -2.1017  -21.0270 H           1 MOL       0.0463
     22 H7        -23.7111   -2.4994  -21.0277 H           1 MOL       0.1757
     23 H8        -22.2374   -3.0168  -20.4329 H           1 MOL       0.1757
@<TRIPOS>BOND
     1     1     2  ar
     2     1     6  ar
     3     2     3  ar
     4     3     4  ar
     5     4     5  ar
     6     4    14  ar
     7     5     6  ar
     8     5     8  ar
     9     6    10   1
    10     8     7  ar
    11     7    13  ar
    12    10     9  ar
    13    10    11  ar
    14    10    12  ar
    15    13    14  ar
    16    14    15   1
    17     1    16   1
    18     2    17   1
    19     3    18   1
    20     7    19   1
    21     8    20   1
    22    13    21   1
    23    15    22   1
    24    15    23   1
@<TRIPOS>SUBSTRUCTURE
     1  MOL      1

