@<TRIPOS>MOLECULE
3cft_ligand_003
    23    24
SMALL
GAST_HUCK
****
This file was generated by PARSER (from files_GN.cpp)

@<TRIPOS>ATOM
      1 C1        -21.7304    0.1993  -27.6859 C.ar        1 MOL      -0.0429
      2 C2        -20.9314   -0.9491  -27.6826 C.ar        1 MOL      -0.0622
      3 C3        -20.1214   -1.2365  -26.5784 C.ar        1 MOL      -0.0544
      4 C4        -20.0911   -0.3746  -25.4536 C.ar        1 MOL       0.0090
      5 C5        -20.8991    0.8123  -25.4634 C.ar        1 MOL      -0.0074
      6 C6        -21.7483    1.0861  -26.5841 C.ar        1 MOL       0.0533
      7 C9        -20.0106    1.3665  -23.2303 C.ar        1 MOL      -0.0784
      8 C10       -20.8121    1.6773  -24.3383 C.ar        1 MOL      -0.0698
      9 O14       -21.9746    3.7202  -27.4955 O.co2       1 MOL      -0.4801
     10 S11       -22.8268    2.4697  -26.7385 S.o2        1 MOL      -0.1641
     11 O12       -23.4253    3.0241  -25.2572 O.co2       1 MOL      -0.4801
     12 O13       -24.1554    2.0694  -27.7014 O.co2       1 MOL      -0.4801
     13 C8        -19.2364    0.2007  -23.2295 C.ar        1 MOL      -0.0461
     14 C7        -19.2635   -0.6698  -24.3349 C.ar        1 MOL       0.0492
     15 N15       -18.4704   -1.7550  -24.2608 N.pl3       1 MOL      -0.3324
     16 H1        -22.3053    0.3788  -28.5113 H           1 MOL       0.0631
     17 H2        -20.9424   -1.5819  -28.4827 H           1 MOL       0.0585
     18 H3        -19.5563   -2.0840  -26.6100 H           1 MOL       0.0631
     19 H4        -19.9892    2.0018  -22.4255 H           1 MOL       0.0573
     20 H5        -21.3184    2.5628  -24.3103 H           1 MOL       0.0468
     21 H6        -18.6491    0.0086  -22.4217 H           1 MOL       0.0463
     22 H7        -18.4335   -2.3887  -24.9898 H           1 MOL       0.1757
     23 H8        -17.9178   -1.8986  -23.4798 H           1 MOL       0.1757
@<TRIPOS>BOND
     1     1     2  ar
     2     1     6  ar
     3     2     3  ar
     4     3     4  ar
     5     4     5  ar
     6     4    14  ar
     7     5     6  ar
     8     5     8  ar
     9     6    10   1
    10     8     7  ar
    11     7    13  ar
    12    10     9  ar
    13    10    11  ar
    14    10    12  ar
    15    13    14  ar
    16    14    15   1
    17     1    16   1
    18     2    17   1
    19     3    18   1
    20     7    19   1
    21     8    20   1
    22    13    21   1
    23    15    22   1
    24    15    23   1
@<TRIPOS>SUBSTRUCTURE
     1  MOL      1

