@<TRIPOS>MOLECULE
3cft_ligand_030
    23    24
SMALL
GAST_HUCK
****
This file was generated by PARSER (from files_GN.cpp)

@<TRIPOS>ATOM
      1 C1        -23.8188   -1.8045  -26.7470 C.ar        1 MOL      -0.0429
      2 C2        -23.7322   -1.7155  -25.3495 C.ar        1 MOL      -0.0622
      3 C3        -22.4947   -1.8270  -24.7136 C.ar        1 MOL      -0.0544
      4 C4        -21.3123   -2.0400  -25.4626 C.ar        1 MOL       0.0090
      5 C5        -21.3976   -2.1219  -26.8910 C.ar        1 MOL      -0.0074
      6 C6        -22.6624   -1.9941  -27.5390 C.ar        1 MOL       0.0533
      7 C9        -18.9632   -2.4799  -26.9730 C.ar        1 MOL      -0.0784
      8 C10       -20.2005   -2.3466  -27.6155 C.ar        1 MOL      -0.0698
      9 O14       -22.5597   -3.6979  -29.7568 O.co2       1 MOL      -0.4801
     10 S11       -22.8940   -2.1116  -29.2775 S.o2        1 MOL      -0.1641
     11 O12       -21.8445   -1.0580  -30.0829 O.co2       1 MOL      -0.4801
     12 O13       -24.4771   -1.7254  -29.7291 O.co2       1 MOL      -0.4801
     13 C8        -18.8888   -2.3956  -25.5767 C.ar        1 MOL      -0.0461
     14 C7        -20.0557   -2.1863  -24.8161 C.ar        1 MOL       0.0492
     15 N15       -19.8992   -2.1317  -23.4822 N.pl3       1 MOL      -0.3324
     16 H1        -24.7403   -1.7390  -27.1829 H           1 MOL       0.0631
     17 H2        -24.5729   -1.5831  -24.7872 H           1 MOL       0.0585
     18 H3        -22.4743   -1.7693  -23.6943 H           1 MOL       0.0631
     19 H4        -18.1182   -2.6331  -27.5292 H           1 MOL       0.0573
     20 H5        -20.1978   -2.4227  -28.6289 H           1 MOL       0.0468
     21 H6        -17.9784   -2.4849  -25.1222 H           1 MOL       0.0463
     22 H7        -20.6596   -1.9979  -22.8995 H           1 MOL       0.1757
     23 H8        -19.0126   -2.2265  -23.1009 H           1 MOL       0.1757
@<TRIPOS>BOND
     1     1     2  ar
     2     1     6  ar
     3     2     3  ar
     4     3     4  ar
     5     4     5  ar
     6     4    14  ar
     7     5     6  ar
     8     5     8  ar
     9     6    10   1
    10     8     7  ar
    11     7    13  ar
    12    10     9  ar
    13    10    11  ar
    14    10    12  ar
    15    13    14  ar
    16    14    15   1
    17     1    16   1
    18     2    17   1
    19     3    18   1
    20     7    19   1
    21     8    20   1
    22    13    21   1
    23    15    22   1
    24    15    23   1
@<TRIPOS>SUBSTRUCTURE
     1  MOL      1

