@<TRIPOS>MOLECULE
3cft_ligand_001
    23    24
SMALL
GAST_HUCK
****
This file was generated by PARSER (from files_GN.cpp)

@<TRIPOS>ATOM
      1 C1        -23.8481    1.6401  -24.8960 C.ar        1 MOL      -0.0429
      2 C2        -24.4258    1.1010  -23.7440 C.ar        1 MOL      -0.0622
      3 C3        -23.9247   -0.0882  -23.2019 C.ar        1 MOL      -0.0544
      4 C4        -22.8463   -0.7728  -23.8160 C.ar        1 MOL       0.0090
      5 C5        -22.2729   -0.2388  -25.0182 C.ar        1 MOL      -0.0074
      6 C6        -22.7656    1.0000  -25.5419 C.ar        1 MOL       0.0533
      7 C9        -20.7406   -2.1606  -25.0837 C.ar        1 MOL      -0.0784
      8 C10       -21.2436   -0.9793  -25.6497 C.ar        1 MOL      -0.0698
      9 O14       -23.2893    1.4556  -28.2345 O.co2       1 MOL      -0.4801
     10 S11       -22.1974    1.8112  -26.9944 S.o2        1 MOL      -0.1641
     11 O12       -20.6297    1.3452  -27.4319 O.co2       1 MOL      -0.4801
     12 O13       -22.2018    3.4918  -26.7818 O.co2       1 MOL      -0.4801
     13 C8        -21.2818   -2.6536  -23.8867 C.ar        1 MOL      -0.0461
     14 C7        -22.3449   -1.9826  -23.2547 C.ar        1 MOL       0.0492
     15 N15       -22.8338   -2.5631  -22.1384 N.pl3       1 MOL      -0.3324
     16 H1        -24.2494    2.5074  -25.2604 H           1 MOL       0.0631
     17 H2        -25.2145    1.5750  -23.3039 H           1 MOL       0.0585
     18 H3        -24.3646   -0.4529  -22.3520 H           1 MOL       0.0631
     19 H4        -19.9893   -2.6671  -25.5550 H           1 MOL       0.0573
     20 H5        -20.8441   -0.6759  -26.5383 H           1 MOL       0.0468
     21 H6        -20.8989   -3.5235  -23.4946 H           1 MOL       0.0463
     22 H7        -23.6081   -2.1949  -21.6898 H           1 MOL       0.1757
     23 H8        -22.4463   -3.3911  -21.8229 H           1 MOL       0.1757
@<TRIPOS>BOND
     1     1     2  ar
     2     1     6  ar
     3     2     3  ar
     4     3     4  ar
     5     4     5  ar
     6     4    14  ar
     7     5     6  ar
     8     5     8  ar
     9     6    10   1
    10     8     7  ar
    11     7    13  ar
    12    10     9  ar
    13    10    11  ar
    14    10    12  ar
    15    13    14  ar
    16    14    15   1
    17     1    16   1
    18     2    17   1
    19     3    18   1
    20     7    19   1
    21     8    20   1
    22    13    21   1
    23    15    22   1
    24    15    23   1
@<TRIPOS>SUBSTRUCTURE
     1  MOL      1

