@<TRIPOS>MOLECULE
3cft_ligand_020
    23    24
SMALL
GAST_HUCK
****
This file was generated by PARSER (from files_GN.cpp)

@<TRIPOS>ATOM
      1 C1        -23.0224   -0.8077  -24.3070 C.ar        1 MOL      -0.0429
      2 C2        -23.0585    0.4791  -24.8492 C.ar        1 MOL      -0.0622
      3 C3        -22.4749    1.5498  -24.1639 C.ar        1 MOL      -0.0544
      4 C4        -21.7970    1.3415  -22.9390 C.ar        1 MOL       0.0090
      5 C5        -21.7371    0.0176  -22.3967 C.ar        1 MOL      -0.0074
      6 C6        -22.3808   -1.0600  -23.0728 C.ar        1 MOL       0.0533
      7 C9        -20.4050    0.9017  -20.5262 C.ar        1 MOL      -0.0784
      8 C10       -21.0099   -0.1732  -21.1925 C.ar        1 MOL      -0.0698
      9 O14       -22.8952   -2.8262  -20.9092 O.co2       1 MOL      -0.4801
     10 S11       -22.3697   -2.7191  -22.5125 S.o2        1 MOL      -0.1641
     11 O12       -20.7818   -3.2861  -22.5995 O.co2       1 MOL      -0.4801
     12 O13       -23.3645   -3.6987  -23.4636 O.co2       1 MOL      -0.4801
     13 C8        -20.4881    2.1959  -21.0566 C.ar        1 MOL      -0.0461
     14 C7        -21.1762    2.4279  -22.2583 C.ar        1 MOL       0.0492
     15 N15       -21.2073    3.6912  -22.7179 N.pl3       1 MOL      -0.3324
     16 H1        -23.4662   -1.5649  -24.8313 H           1 MOL       0.0631
     17 H2        -23.5135    0.6366  -25.7519 H           1 MOL       0.0585
     18 H3        -22.5404    2.4739  -24.5914 H           1 MOL       0.0631
     19 H4        -19.9104    0.7445  -19.6421 H           1 MOL       0.0573
     20 H5        -20.8961   -1.0949  -20.7777 H           1 MOL       0.0468
     21 H6        -20.0383    2.9692  -20.5574 H           1 MOL       0.0463
     22 H7        -21.6561    3.8899  -23.5497 H           1 MOL       0.1757
     23 H8        -20.7696    4.4035  -22.2215 H           1 MOL       0.1757
@<TRIPOS>BOND
     1     1     2  ar
     2     1     6  ar
     3     2     3  ar
     4     3     4  ar
     5     4     5  ar
     6     4    14  ar
     7     5     6  ar
     8     5     8  ar
     9     6    10   1
    10     8     7  ar
    11     7    13  ar
    12    10     9  ar
    13    10    11  ar
    14    10    12  ar
    15    13    14  ar
    16    14    15   1
    17     1    16   1
    18     2    17   1
    19     3    18   1
    20     7    19   1
    21     8    20   1
    22    13    21   1
    23    15    22   1
    24    15    23   1
@<TRIPOS>SUBSTRUCTURE
     1  MOL      1

