@<TRIPOS>MOLECULE
3cft_ligand_019
    23    24
SMALL
GAST_HUCK
****
This file was generated by PARSER (from files_GN.cpp)

@<TRIPOS>ATOM
      1 C1        -19.5665    1.5890  -24.7561 C.ar        1 MOL      -0.0429
      2 C2        -19.8597    1.4997  -23.3906 C.ar        1 MOL      -0.0622
      3 C3        -20.9457    0.7327  -22.9523 C.ar        1 MOL      -0.0544
      4 C4        -21.7536    0.0265  -23.8746 C.ar        1 MOL       0.0090
      5 C5        -21.4424    0.1036  -25.2744 C.ar        1 MOL      -0.0074
      6 C6        -20.3477    0.9105  -25.7151 C.ar        1 MOL       0.0533
      7 C9        -23.3209   -1.4185  -25.7262 C.ar        1 MOL      -0.0784
      8 C10       -22.2396   -0.6463  -26.1759 C.ar        1 MOL      -0.0698
      9 O14       -18.6864    2.2870  -27.5903 O.co2       1 MOL      -0.4801
     10 S11       -19.8800    1.1046  -27.3955 S.o2        1 MOL      -0.1641
     11 O12       -21.2208    1.5393  -28.3293 O.co2       1 MOL      -0.4801
     12 O13       -19.2795   -0.3691  -27.9659 O.co2       1 MOL      -0.4801
     13 C8        -23.6317   -1.4664  -24.3619 C.ar        1 MOL      -0.0461
     14 C7        -22.8531   -0.7578  -23.4279 C.ar        1 MOL       0.0492
     15 N15       -23.2023   -0.8721  -22.1290 N.pl3       1 MOL      -0.3324
     16 H1        -18.7653    2.1580  -25.0335 H           1 MOL       0.0631
     17 H2        -19.2800    1.9965  -22.7116 H           1 MOL       0.0585
     18 H3        -21.1257    0.6960  -21.9471 H           1 MOL       0.0631
     19 H4        -23.8856   -1.9452  -26.3967 H           1 MOL       0.0573
     20 H5        -22.0480   -0.6559  -27.1769 H           1 MOL       0.0468
     21 H6        -24.4287   -2.0287  -24.0549 H           1 MOL       0.0463
     22 H7        -22.6992   -0.4139  -21.4391 H           1 MOL       0.1757
     23 H8        -23.9573   -1.4264  -21.8754 H           1 MOL       0.1757
@<TRIPOS>BOND
     1     1     2  ar
     2     1     6  ar
     3     2     3  ar
     4     3     4  ar
     5     4     5  ar
     6     4    14  ar
     7     5     6  ar
     8     5     8  ar
     9     6    10   1
    10     8     7  ar
    11     7    13  ar
    12    10     9  ar
    13    10    11  ar
    14    10    12  ar
    15    13    14  ar
    16    14    15   1
    17     1    16   1
    18     2    17   1
    19     3    18   1
    20     7    19   1
    21     8    20   1
    22    13    21   1
    23    15    22   1
    24    15    23   1
@<TRIPOS>SUBSTRUCTURE
     1  MOL      1

