@<TRIPOS>MOLECULE
3cft_ligand_026
    23    24
SMALL
GAST_HUCK
****
This file was generated by PARSER (from files_GN.cpp)

@<TRIPOS>ATOM
      1 C1        -21.7019    0.9936  -31.7793 C.ar        1 MOL      -0.0429
      2 C2        -21.1423    1.7087  -32.8448 C.ar        1 MOL      -0.0622
      3 C3        -19.9189    2.3683  -32.6775 C.ar        1 MOL      -0.0544
      4 C4        -19.2364    2.3330  -31.4379 C.ar        1 MOL       0.0090
      5 C5        -19.8205    1.6176  -30.3400 C.ar        1 MOL      -0.0074
      6 C6        -21.0596    0.9296  -30.5231 C.ar        1 MOL       0.0533
      7 C9        -17.8944    2.2700  -28.9479 C.ar        1 MOL      -0.0784
      8 C10       -19.1264    1.6184  -29.1017 C.ar        1 MOL      -0.0698
      9 O14       -23.0821   -0.9881  -29.9087 O.co2       1 MOL      -0.4801
     10 S11       -21.8619   -0.0048  -29.2738 S.o2        1 MOL      -0.1641
     11 O12       -22.5486    1.0680  -28.1626 O.co2       1 MOL      -0.4801
     12 O13       -20.7570   -1.0001  -28.4712 O.co2       1 MOL      -0.4801
     13 C8        -17.3257    2.9541  -30.0298 C.ar        1 MOL      -0.0461
     14 C7        -17.9888    2.9977  -31.2706 C.ar        1 MOL       0.0492
     15 N15       -17.3870    3.6945  -32.2562 N.pl3       1 MOL      -0.3324
     16 H1        -22.5918    0.5194  -31.9456 H           1 MOL       0.0631
     17 H2        -21.6221    1.7452  -33.7486 H           1 MOL       0.0585
     18 H3        -19.5382    2.8734  -33.4793 H           1 MOL       0.0631
     19 H4        -17.4178    2.2540  -28.0435 H           1 MOL       0.0573
     20 H5        -19.5055    1.1488  -28.2782 H           1 MOL       0.0468
     21 H6        -16.4317    3.4320  -29.8992 H           1 MOL       0.0463
     22 H7        -17.7967    3.7672  -33.1305 H           1 MOL       0.1757
     23 H8        -16.5387    4.1364  -32.0903 H           1 MOL       0.1757
@<TRIPOS>BOND
     1     1     2  ar
     2     1     6  ar
     3     2     3  ar
     4     3     4  ar
     5     4     5  ar
     6     4    14  ar
     7     5     6  ar
     8     5     8  ar
     9     6    10   1
    10     8     7  ar
    11     7    13  ar
    12    10     9  ar
    13    10    11  ar
    14    10    12  ar
    15    13    14  ar
    16    14    15   1
    17     1    16   1
    18     2    17   1
    19     3    18   1
    20     7    19   1
    21     8    20   1
    22    13    21   1
    23    15    22   1
    24    15    23   1
@<TRIPOS>SUBSTRUCTURE
     1  MOL      1

