@<TRIPOS>MOLECULE
3cft_ligand_004
    23    24
SMALL
GAST_HUCK
****
This file was generated by PARSER (from files_GN.cpp)

@<TRIPOS>ATOM
      1 C1        -20.4200   -1.7923  -26.5858 C.ar        1 MOL      -0.0429
      2 C2        -20.2307   -2.7960  -25.6259 C.ar        1 MOL      -0.0622
      3 C3        -20.9853   -2.7872  -24.4481 C.ar        1 MOL      -0.0544
      4 C4        -21.9430   -1.7768  -24.2005 C.ar        1 MOL       0.0090
      5 C5        -22.1309   -0.7435  -25.1803 C.ar        1 MOL      -0.0074
      6 C6        -21.3706   -0.7654  -26.3885 C.ar        1 MOL       0.0533
      7 C9        -23.8294    0.2657  -23.7099 C.ar        1 MOL      -0.0784
      8 C10       -23.0716    0.2752  -24.8942 C.ar        1 MOL      -0.0698
      9 O14       -23.1103    0.7786  -28.0402 O.co2       1 MOL      -0.4801
     10 S11       -21.4936    0.4418  -27.6555 S.o2        1 MOL      -0.1641
     11 O12       -20.7045   -0.0680  -29.0591 O.co2       1 MOL      -0.4801
     12 O13       -20.7581    1.8625  -27.1114 O.co2       1 MOL      -0.4801
     13 C8        -23.6483   -0.7548  -22.7722 C.ar        1 MOL      -0.0461
     14 C7        -22.7071   -1.7764  -23.0007 C.ar        1 MOL       0.0492
     15 N15       -22.5892   -2.7179  -22.0413 N.pl3       1 MOL      -0.3324
     16 H1        -19.8411   -1.8217  -27.4281 H           1 MOL       0.0631
     17 H2        -19.5378   -3.5292  -25.7836 H           1 MOL       0.0585
     18 H3        -20.8183   -3.5317  -23.7700 H           1 MOL       0.0631
     19 H4        -24.5137    1.0057  -23.5326 H           1 MOL       0.0573
     20 H5        -23.2284    1.0504  -25.5351 H           1 MOL       0.0468
     21 H6        -24.2036   -0.7445  -21.9134 H           1 MOL       0.0463
     22 H7        -21.9552   -3.4460  -22.1345 H           1 MOL       0.1757
     23 H8        -23.1534   -2.6759  -21.2518 H           1 MOL       0.1757
@<TRIPOS>BOND
     1     1     2  ar
     2     1     6  ar
     3     2     3  ar
     4     3     4  ar
     5     4     5  ar
     6     4    14  ar
     7     5     6  ar
     8     5     8  ar
     9     6    10   1
    10     8     7  ar
    11     7    13  ar
    12    10     9  ar
    13    10    11  ar
    14    10    12  ar
    15    13    14  ar
    16    14    15   1
    17     1    16   1
    18     2    17   1
    19     3    18   1
    20     7    19   1
    21     8    20   1
    22    13    21   1
    23    15    22   1
    24    15    23   1
@<TRIPOS>SUBSTRUCTURE
     1  MOL      1

