@<TRIPOS>MOLECULE
3cft_ligand_025
    23    24
SMALL
GAST_HUCK
****
This file was generated by PARSER (from files_GN.cpp)

@<TRIPOS>ATOM
      1 C1        -21.5482    0.9594  -30.3697 C.ar        1 MOL      -0.0429
      2 C2        -21.7683    1.2833  -31.7162 C.ar        1 MOL      -0.0622
      3 C3        -20.7920    1.9842  -32.4384 C.ar        1 MOL      -0.0544
      4 C4        -19.5605    2.3439  -31.8375 C.ar        1 MOL       0.0090
      5 C5        -19.3252    1.9862  -30.4670 C.ar        1 MOL      -0.0074
      6 C6        -20.3427    1.3088  -29.7235 C.ar        1 MOL       0.0533
      7 C9        -17.0703    2.9656  -30.6530 C.ar        1 MOL      -0.0784
      8 C10       -18.0567    2.3011  -29.9079 C.ar        1 MOL      -0.0698
      9 O14       -19.2482    1.9346  -27.1894 O.co2       1 MOL      -0.4801
     10 S11       -20.1604    0.8024  -28.0577 S.o2        1 MOL      -0.1641
     11 O12       -19.3474   -0.6832  -28.0659 O.co2       1 MOL      -0.4801
     12 O13       -21.6540    0.6116  -27.2826 O.co2       1 MOL      -0.4801
     13 C8        -17.3224    3.3253  -31.9815 C.ar        1 MOL      -0.0461
     14 C7        -18.5563    3.0209  -32.5823 C.ar        1 MOL       0.0492
     15 N15       -18.7137    3.3888  -33.8684 N.pl3       1 MOL      -0.3324
     16 H1        -22.2782    0.4455  -29.8753 H           1 MOL       0.0631
     17 H2        -22.6393    1.0095  -32.1719 H           1 MOL       0.0585
     18 H3        -20.9906    2.2035  -33.4142 H           1 MOL       0.0631
     19 H4        -16.1632    3.1761  -30.2305 H           1 MOL       0.0573
     20 H5        -17.8185    2.0388  -28.9475 H           1 MOL       0.0468
     21 H6        -16.5870    3.8104  -32.5099 H           1 MOL       0.0463
     22 H7        -19.5388    3.2017  -34.3373 H           1 MOL       0.1757
     23 H8        -17.9936    3.8436  -34.3338 H           1 MOL       0.1757
@<TRIPOS>BOND
     1     1     2  ar
     2     1     6  ar
     3     2     3  ar
     4     3     4  ar
     5     4     5  ar
     6     4    14  ar
     7     5     6  ar
     8     5     8  ar
     9     6    10   1
    10     8     7  ar
    11     7    13  ar
    12    10     9  ar
    13    10    11  ar
    14    10    12  ar
    15    13    14  ar
    16    14    15   1
    17     1    16   1
    18     2    17   1
    19     3    18   1
    20     7    19   1
    21     8    20   1
    22    13    21   1
    23    15    22   1
    24    15    23   1
@<TRIPOS>SUBSTRUCTURE
     1  MOL      1

