@<TRIPOS>MOLECULE
3cft_ligand_000
    23    24
SMALL
GAST_HUCK
****
This file was generated by PARSER (from files_GN.cpp)

@<TRIPOS>ATOM
      1 C1        -19.3659   -1.1488  -24.9921 C.ar        1 MOL      -0.0429
      2 C2        -18.7909   -0.8676  -23.7505 C.ar        1 MOL      -0.0622
      3 C3        -19.1733    0.2793  -23.0433 C.ar        1 MOL      -0.0544
      4 C4        -20.1794    1.1392  -23.5453 C.ar        1 MOL       0.0090
      5 C5        -20.7988    0.8272  -24.8022 C.ar        1 MOL      -0.0074
      6 C6        -20.3377   -0.2972  -25.5585 C.ar        1 MOL       0.0533
      7 C9        -22.2755    2.7719  -24.4971 C.ar        1 MOL      -0.0784
      8 C10       -21.8686    1.6454  -25.2337 C.ar        1 MOL      -0.0698
      9 O14       -19.5485   -1.4840  -27.9830 O.co2       1 MOL      -0.4801
     10 S11       -20.8391   -0.7428  -27.1769 S.o2        1 MOL      -0.1641
     11 O12       -21.3232    0.5836  -28.1027 O.co2       1 MOL      -0.4801
     12 O13       -22.1191   -1.8419  -27.0628 O.co2       1 MOL      -0.4801
     13 C8        -21.6295    3.0935  -23.2957 C.ar        1 MOL      -0.0461
     14 C7        -20.5874    2.2849  -22.8061 C.ar        1 MOL       0.0492
     15 N15       -20.0345    2.6676  -21.6388 N.pl3       1 MOL      -0.3324
     16 H1        -19.0418   -1.9855  -25.4854 H           1 MOL       0.0631
     17 H2        -18.0783   -1.4945  -23.3695 H           1 MOL       0.0585
     18 H3        -18.7195    0.4649  -22.1466 H           1 MOL       0.0631
     19 H4        -23.0456    3.3534  -24.8343 H           1 MOL       0.0573
     20 H5        -22.4007    1.4274  -26.0756 H           1 MOL       0.0468
     21 H6        -21.9296    3.9193  -22.7732 H           1 MOL       0.0463
     22 H7        -19.2705    2.1890  -21.2731 H           1 MOL       0.1757
     23 H8        -20.3500    3.4672  -21.1888 H           1 MOL       0.1757
@<TRIPOS>BOND
     1     1     2  ar
     2     1     6  ar
     3     2     3  ar
     4     3     4  ar
     5     4     5  ar
     6     4    14  ar
     7     5     6  ar
     8     5     8  ar
     9     6    10   1
    10     8     7  ar
    11     7    13  ar
    12    10     9  ar
    13    10    11  ar
    14    10    12  ar
    15    13    14  ar
    16    14    15   1
    17     1    16   1
    18     2    17   1
    19     3    18   1
    20     7    19   1
    21     8    20   1
    22    13    21   1
    23    15    22   1
    24    15    23   1
@<TRIPOS>SUBSTRUCTURE
     1  MOL      1

