@<TRIPOS>MOLECULE
3cft_ligand_005
    23    24
SMALL
GAST_HUCK
****
This file was generated by PARSER (from files_GN.cpp)

@<TRIPOS>ATOM
      1 C1        -20.1803   -0.5573  -27.0197 C.ar        1 MOL      -0.0429
      2 C2        -20.7288    0.4607  -27.8061 C.ar        1 MOL      -0.0622
      3 C3        -21.7562    1.2617  -27.2979 C.ar        1 MOL      -0.0544
      4 C4        -22.2691    1.0533  -26.0006 C.ar        1 MOL       0.0090
      5 C5        -21.7018    0.0165  -25.1918 C.ar        1 MOL      -0.0074
      6 C6        -20.6233   -0.7714  -25.6968 C.ar        1 MOL       0.0533
      7 C9        -23.3098    0.6033  -23.4221 C.ar        1 MOL      -0.0784
      8 C10       -22.2679   -0.1985  -23.9094 C.ar        1 MOL      -0.0698
      9 O14       -18.9410   -1.4557  -23.5033 O.co2       1 MOL      -0.4801
     10 S11       -19.8167   -2.0599  -24.8173 S.o2        1 MOL      -0.1641
     11 O12       -18.7627   -2.9249  -25.8177 O.co2       1 MOL      -0.4801
     12 O13       -20.9956   -3.1298  -24.2551 O.co2       1 MOL      -0.4801
     13 C8        -23.8351    1.6306  -24.2162 C.ar        1 MOL      -0.0461
     14 C7        -23.3330    1.8572  -25.5078 C.ar        1 MOL       0.0492
     15 N15       -23.9087    2.8503  -26.2249 N.pl3       1 MOL      -0.3324
     16 H1        -19.4625   -1.1482  -27.4400 H           1 MOL       0.0631
     17 H2        -20.3889    0.6130  -28.7594 H           1 MOL       0.0585
     18 H3        -22.1344    1.9900  -27.9048 H           1 MOL       0.0631
     19 H4        -23.6887    0.4403  -22.4878 H           1 MOL       0.0573
     20 H5        -21.9428   -0.9594  -23.3108 H           1 MOL       0.0468
     21 H6        -24.5983    2.2005  -23.8478 H           1 MOL       0.0463
     22 H7        -23.6190    3.0360  -27.1289 H           1 MOL       0.1757
     23 H8        -24.6021    3.3978  -25.8301 H           1 MOL       0.1757
@<TRIPOS>BOND
     1     1     2  ar
     2     1     6  ar
     3     2     3  ar
     4     3     4  ar
     5     4     5  ar
     6     4    14  ar
     7     5     6  ar
     8     5     8  ar
     9     6    10   1
    10     8     7  ar
    11     7    13  ar
    12    10     9  ar
    13    10    11  ar
    14    10    12  ar
    15    13    14  ar
    16    14    15   1
    17     1    16   1
    18     2    17   1
    19     3    18   1
    20     7    19   1
    21     8    20   1
    22    13    21   1
    23    15    22   1
    24    15    23   1
@<TRIPOS>SUBSTRUCTURE
     1  MOL      1

