@<TRIPOS>MOLECULE
3cft_ligand_015
    23    24
SMALL
GAST_HUCK
****
This file was generated by PARSER (from files_GN.cpp)

@<TRIPOS>ATOM
      1 C1        -21.0657    3.0291  -29.7418 C.ar        1 MOL      -0.0429
      2 C2        -21.2854    3.4587  -28.4277 C.ar        1 MOL      -0.0622
      3 C3        -21.8408    2.5806  -27.4872 C.ar        1 MOL      -0.0544
      4 C4        -22.1584    1.2466  -27.8324 C.ar        1 MOL       0.0090
      5 C5        -21.9388    0.8083  -29.1815 C.ar        1 MOL      -0.0074
      6 C6        -21.4127    1.7233  -30.1455 C.ar        1 MOL       0.0533
      7 C9        -22.7642   -1.4215  -28.5408 C.ar        1 MOL      -0.0784
      8 C10       -22.2454   -0.5410  -29.5009 C.ar        1 MOL      -0.0698
      9 O14       -20.8021    2.6820  -32.7705 O.co2       1 MOL      -0.4801
     10 S11       -21.1524    1.3193  -31.8308 S.o2        1 MOL      -0.1641
     11 O12       -22.5302    0.5650  -32.4563 O.co2       1 MOL      -0.4801
     12 O13       -19.8508    0.2486  -31.8991 O.co2       1 MOL      -0.4801
     13 C8        -22.9808   -0.9816  -27.2287 C.ar        1 MOL      -0.0461
     14 C7        -22.6787    0.3447  -26.8630 C.ar        1 MOL       0.0492
     15 N15       -22.8921    0.6856  -25.5754 N.pl3       1 MOL      -0.3324
     16 H1        -20.6702    3.7014  -30.4047 H           1 MOL       0.0631
     17 H2        -21.0637    4.4220  -28.1628 H           1 MOL       0.0585
     18 H3        -22.0076    2.9374  -26.5441 H           1 MOL       0.0631
     19 H4        -22.9758   -2.3890  -28.7941 H           1 MOL       0.0573
     20 H5        -22.0911   -0.9124  -30.4380 H           1 MOL       0.0468
     21 H6        -23.3518   -1.6397  -26.5381 H           1 MOL       0.0463
     22 H7        -22.6909    1.5796  -25.2613 H           1 MOL       0.1757
     23 H8        -23.2344    0.0268  -24.9507 H           1 MOL       0.1757
@<TRIPOS>BOND
     1     1     2  ar
     2     1     6  ar
     3     2     3  ar
     4     3     4  ar
     5     4     5  ar
     6     4    14  ar
     7     5     6  ar
     8     5     8  ar
     9     6    10   1
    10     8     7  ar
    11     7    13  ar
    12    10     9  ar
    13    10    11  ar
    14    10    12  ar
    15    13    14  ar
    16    14    15   1
    17     1    16   1
    18     2    17   1
    19     3    18   1
    20     7    19   1
    21     8    20   1
    22    13    21   1
    23    15    22   1
    24    15    23   1
@<TRIPOS>SUBSTRUCTURE
     1  MOL      1

