@<TRIPOS>MOLECULE
3cft_ligand_021
    23    24
SMALL
GAST_HUCK
****
This file was generated by PARSER (from files_GN.cpp)

@<TRIPOS>ATOM
      1 C1        -21.0469    1.8967  -22.1998 C.ar        1 MOL      -0.0429
      2 C2        -21.9752    1.4693  -21.2462 C.ar        1 MOL      -0.0622
      3 C3        -22.2720    0.1066  -21.1120 C.ar        1 MOL      -0.0544
      4 C4        -21.6653   -0.8564  -21.9505 C.ar        1 MOL       0.0090
      5 C5        -20.7197   -0.4171  -22.9359 C.ar        1 MOL      -0.0074
      6 C6        -20.4059    0.9709  -23.0518 C.ar        1 MOL       0.0533
      7 C9        -20.4743   -2.7547  -23.6686 C.ar        1 MOL      -0.0784
      8 C10       -20.1375   -1.3973  -23.7823 C.ar        1 MOL      -0.0698
      9 O14       -19.7959    1.2536  -25.7711 O.co2       1 MOL      -0.4801
     10 S11       -19.2669    1.6210  -24.2089 S.o2        1 MOL      -0.1641
     11 O12       -17.7550    0.9098  -23.9580 O.co2       1 MOL      -0.4801
     12 O13       -19.0978    3.2990  -24.0781 O.co2       1 MOL      -0.4801
     13 C8        -21.3858   -3.1730  -22.6893 C.ar        1 MOL      -0.0461
     14 C7        -21.9909   -2.2370  -21.8327 C.ar        1 MOL       0.0492
     15 N15       -22.8831   -2.7126  -20.9404 N.pl3       1 MOL      -0.3324
     16 H1        -20.8511    2.8971  -22.2586 H           1 MOL       0.0631
     17 H2        -22.4409    2.1538  -20.6476 H           1 MOL       0.0585
     18 H3        -22.9446   -0.1650  -20.3925 H           1 MOL       0.0631
     19 H4        -20.0587   -3.4379  -24.3020 H           1 MOL       0.0573
     20 H5        -19.4663   -1.1478  -24.5063 H           1 MOL       0.0468
     21 H6        -21.6150   -4.1663  -22.6186 H           1 MOL       0.0463
     22 H7        -23.3527   -2.1103  -20.3413 H           1 MOL       0.1757
     23 H8        -23.0800   -3.6618  -20.9077 H           1 MOL       0.1757
@<TRIPOS>BOND
     1     1     2  ar
     2     1     6  ar
     3     2     3  ar
     4     3     4  ar
     5     4     5  ar
     6     4    14  ar
     7     5     6  ar
     8     5     8  ar
     9     6    10   1
    10     8     7  ar
    11     7    13  ar
    12    10     9  ar
    13    10    11  ar
    14    10    12  ar
    15    13    14  ar
    16    14    15   1
    17     1    16   1
    18     2    17   1
    19     3    18   1
    20     7    19   1
    21     8    20   1
    22    13    21   1
    23    15    22   1
    24    15    23   1
@<TRIPOS>SUBSTRUCTURE
     1  MOL      1

