@<TRIPOS>MOLECULE
3cft_ligand_014
    23    24
SMALL
GAST_HUCK
****
This file was generated by PARSER (from files_GN.cpp)

@<TRIPOS>ATOM
      1 C1        -21.8453   -1.5009  -22.1419 C.ar        1 MOL      -0.0429
      2 C2        -22.3810   -0.6024  -21.2131 C.ar        1 MOL      -0.0622
      3 C3        -22.0417    0.7545  -21.2738 C.ar        1 MOL      -0.0544
      4 C4        -21.1525    1.2415  -22.2600 C.ar        1 MOL       0.0090
      5 C5        -20.6031    0.3211  -23.2110 C.ar        1 MOL      -0.0074
      6 C6        -20.9576   -1.0589  -23.1470 C.ar        1 MOL       0.0533
      7 C9        -19.3729    2.1832  -24.2422 C.ar        1 MOL      -0.0784
      8 C10       -19.7156    0.8269  -24.1938 C.ar        1 MOL      -0.0698
      9 O14       -21.0094   -3.7788  -23.9406 O.co2       1 MOL      -0.4801
     10 S11       -20.3384   -2.2625  -24.2556 S.o2        1 MOL      -0.1641
     11 O12       -18.6570   -2.3457  -24.0984 O.co2       1 MOL      -0.4801
     12 O13       -20.7180   -1.8275  -25.8442 O.co2       1 MOL      -0.4801
     13 C8        -19.9184    3.0741  -23.3110 C.ar        1 MOL      -0.0461
     14 C7        -20.8078    2.6197  -22.3209 C.ar        1 MOL       0.0492
     15 N15       -21.2934    3.5437  -21.4675 N.pl3       1 MOL      -0.3324
     16 H1        -22.1191   -2.4828  -22.0659 H           1 MOL       0.0631
     17 H2        -23.0200   -0.9394  -20.4906 H           1 MOL       0.0585
     18 H3        -22.4590    1.3786  -20.5846 H           1 MOL       0.0631
     19 H4        -18.7267    2.5203  -24.9594 H           1 MOL       0.0573
     20 H5        -19.2975    0.2210  -24.8964 H           1 MOL       0.0468
     21 H6        -19.6581    4.0594  -23.3631 H           1 MOL       0.0463
     22 H7        -21.8732    3.2821  -20.7364 H           1 MOL       0.1757
     23 H8        -21.0176    4.4707  -21.5532 H           1 MOL       0.1757
@<TRIPOS>BOND
     1     1     2  ar
     2     1     6  ar
     3     2     3  ar
     4     3     4  ar
     5     4     5  ar
     6     4    14  ar
     7     5     6  ar
     8     5     8  ar
     9     6    10   1
    10     8     7  ar
    11     7    13  ar
    12    10     9  ar
    13    10    11  ar
    14    10    12  ar
    15    13    14  ar
    16    14    15   1
    17     1    16   1
    18     2    17   1
    19     3    18   1
    20     7    19   1
    21     8    20   1
    22    13    21   1
    23    15    22   1
    24    15    23   1
@<TRIPOS>SUBSTRUCTURE
     1  MOL      1

