@<TRIPOS>MOLECULE
3cft_ligand_006
    23    24
SMALL
GAST_HUCK
****
This file was generated by PARSER (from files_GN.cpp)

@<TRIPOS>ATOM
      1 C1        -22.1492   -1.5338  -24.8794 C.ar        1 MOL      -0.0429
      2 C2        -22.9826   -0.6773  -24.1540 C.ar        1 MOL      -0.0622
      3 C3        -23.2284    0.6202  -24.6190 C.ar        1 MOL      -0.0544
      4 C4        -22.6462    1.0833  -25.8225 C.ar        1 MOL       0.0090
      5 C5        -21.8046    0.1978  -26.5738 C.ar        1 MOL      -0.0074
      6 C6        -21.5529   -1.1221  -26.0864 C.ar        1 MOL       0.0533
      7 C9        -21.4927    1.9875  -28.2400 C.ar        1 MOL      -0.0784
      8 C10       -21.2655    0.6749  -27.8000 C.ar        1 MOL      -0.0698
      9 O14       -19.1936   -1.6505  -27.6088 O.co2       1 MOL      -0.4801
     10 S11       -20.5890   -2.3203  -26.9319 S.o2        1 MOL      -0.1641
     11 O12       -21.5239   -2.9624  -28.1882 O.co2       1 MOL      -0.4801
     12 O13       -20.1346   -3.5830  -25.9009 O.co2       1 MOL      -0.4801
     13 C8        -22.2903    2.8547  -27.4761 C.ar        1 MOL      -0.0461
     14 C7        -22.8937    2.4085  -26.2884 C.ar        1 MOL       0.0492
     15 N15       -23.6966    3.2886  -25.6504 N.pl3       1 MOL      -0.3324
     16 H1        -21.9962   -2.4726  -24.5098 H           1 MOL       0.0631
     17 H2        -23.4199   -1.0030  -23.2901 H           1 MOL       0.0585
     18 H3        -23.8446    1.2159  -24.0625 H           1 MOL       0.0631
     19 H4        -21.0782    2.3235  -29.1099 H           1 MOL       0.0573
     20 H5        -20.6926    0.0800  -28.4003 H           1 MOL       0.0468
     21 H6        -22.4438    3.8124  -27.8033 H           1 MOL       0.0463
     22 H7        -24.1372    3.0486  -24.8226 H           1 MOL       0.1757
     23 H8        -23.8392    4.1656  -26.0408 H           1 MOL       0.1757
@<TRIPOS>BOND
     1     1     2  ar
     2     1     6  ar
     3     2     3  ar
     4     3     4  ar
     5     4     5  ar
     6     4    14  ar
     7     5     6  ar
     8     5     8  ar
     9     6    10   1
    10     8     7  ar
    11     7    13  ar
    12    10     9  ar
    13    10    11  ar
    14    10    12  ar
    15    13    14  ar
    16    14    15   1
    17     1    16   1
    18     2    17   1
    19     3    18   1
    20     7    19   1
    21     8    20   1
    22    13    21   1
    23    15    22   1
    24    15    23   1
@<TRIPOS>SUBSTRUCTURE
     1  MOL      1

