@<TRIPOS>MOLECULE
3cj2_ligand_040
    37    38
SMALL
GAST_HUCK
****
This file was generated by PARSER (from files_GN.cpp)

@<TRIPOS>ATOM
      1 BR1       -17.1030   -0.4380  -24.8765 Br          1 SX3      -0.0605
      2 C11       -17.8245    0.1692  -23.2730 C.ar        1 SX3       0.0047
      3 C10       -19.1335    0.6822  -23.2374 C.ar        1 SX3      -0.0437
      4 C12       -17.0672    0.1003  -22.0913 C.ar        1 SX3      -0.0597
      5 C13       -17.6132    0.5530  -20.8779 C.ar        1 SX3      -0.0356
      6 C14       -18.9251    1.0641  -20.8278 C.ar        1 SX3       0.0599
      7 N2        -19.3991    1.4594  -19.6269 N.pl3       1 SX3      -0.3308
      8 C9        -19.7057    1.1117  -22.0154 C.ar        1 SX3       0.0698
      9 C8        -21.0147    1.5728  -22.0030 C.2         1 SX3       0.1999
     10 O1        -21.1033    2.7748  -21.7801 O.2         1 SX3      -0.3919
     11 N1        -22.1137    0.8000  -22.1227 N.am        1 SX3      -0.2741
     12 C6        -23.4548    1.3553  -22.0012 C.3         1 SX3       0.0356
     13 C4        -24.2290    0.7354  -20.7983 C.3         1 SX3      -0.0232
     14 C5        -23.8226    1.3676  -19.4388 C.3         1 SX3      -0.0606
     15 C3        -24.1371   -0.8236  -20.8251 C.3         1 SX3      -0.0442
     16 C7        -22.0822   -0.6423  -22.3350 C.3         1 SX3       0.0356
     17 C2        -22.7237   -1.4067  -21.1402 C.3         1 SX3      -0.0232
     18 C1        -21.7691   -1.4756  -19.9167 C.3         1 SX3      -0.0606
     19 H1        -19.6733    0.7203  -24.1070 H           1 SX3       0.0663
     20 H2        -16.1217   -0.2871  -22.1091 H           1 SX3       0.0644
     21 H3        -17.0535    0.4873  -20.0253 H           1 SX3       0.0535
     22 H4        -18.8422    1.3828  -18.8340 H           1 SX3       0.1755
     23 H5        -20.3047    1.7979  -19.5431 H           1 SX3       0.1755
     24 H6        -24.0029    1.1417  -22.9243 H           1 SX3       0.0524
     25 H7        -23.4726    2.4440  -21.8980 H           1 SX3       0.0524
     26 H8        -25.2851    0.9910  -20.9310 H           1 SX3       0.0318
     27 H9        -24.3508    0.8761  -18.6209 H           1 SX3       0.0233
     28 H10       -24.0919    2.4251  -19.4227 H           1 SX3       0.0233
     29 H11       -22.7530    1.2941  -19.2598 H           1 SX3       0.0233
     30 H12       -24.8122   -1.1744  -21.6121 H           1 SX3       0.0272
     31 H13       -24.5147   -1.2436  -19.8896 H           1 SX3       0.0272
     32 H14       -21.0852   -1.0490  -22.5036 H           1 SX3       0.0524
     33 H15       -22.6469   -0.8740  -23.2428 H           1 SX3       0.0524
     34 H16       -22.8723   -2.4469  -21.4559 H           1 SX3       0.0318
     35 H17       -22.2721   -1.9299  -19.0628 H           1 SX3       0.0233
     36 H18       -21.4133   -0.4906  -19.6311 H           1 SX3       0.0233
     37 H19       -20.8975   -2.0848  -20.1577 H           1 SX3       0.0233
@<TRIPOS>BOND
     1     1     2   1
     2     2     3  ar
     3     2     4  ar
     4     3     8  ar
     5     4     5  ar
     6     5     6  ar
     7     6     7   1
     8     6     8  ar
     9     8     9   1
    10     9    10   2
    11     9    11  am
    12    11    12   1
    13    11    16   1
    14    12    13   1
    15    13    14   1
    16    13    15   1
    17    15    17   1
    18    16    17   1
    19    17    18   1
    20     3    19   1
    21     4    20   1
    22     5    21   1
    23     7    22   1
    24     7    23   1
    25    12    24   1
    26    12    25   1
    27    13    26   1
    28    14    27   1
    29    14    28   1
    30    14    29   1
    31    15    30   1
    32    15    31   1
    33    16    32   1
    34    16    33   1
    35    17    34   1
    36    18    35   1
    37    18    36   1
    38    18    37   1
@<TRIPOS>SUBSTRUCTURE
     1  SX3      2

