@<TRIPOS>MOLECULE
3cj2_ligand_047
    37    38
SMALL
GAST_HUCK
****
This file was generated by PARSER (from files_GN.cpp)

@<TRIPOS>ATOM
      1 BR1       -24.0435    6.8557  -20.7033 Br          1 SX3      -0.0605
      2 C11       -23.3540    6.5798  -18.9984 C.ar        1 SX3       0.0047
      3 C10       -24.2172    6.6205  -17.8909 C.ar        1 SX3      -0.0437
      4 C12       -21.9854    6.3190  -18.8113 C.ar        1 SX3      -0.0597
      5 C13       -21.4803    6.0795  -17.5198 C.ar        1 SX3      -0.0356
      6 C14       -22.3386    6.1166  -16.4024 C.ar        1 SX3       0.0599
      7 N2        -21.8033    5.8713  -15.1873 N.pl3       1 SX3      -0.3308
      8 C9        -23.7176    6.3989  -16.5877 C.ar        1 SX3       0.0698
      9 C8        -24.5874    6.4671  -15.5115 C.2         1 SX3       0.1999
     10 O1        -24.9697    5.3652  -15.1372 O.2         1 SX3      -0.3919
     11 N1        -24.9002    7.6005  -14.8492 N.am        1 SX3      -0.2741
     12 C6        -24.4861    8.9312  -15.2844 C.3         1 SX3       0.0356
     13 C4        -25.7318    9.8346  -15.5327 C.3         1 SX3      -0.0232
     14 C5        -25.3291   11.2641  -15.9752 C.3         1 SX3      -0.0606
     15 C3        -26.6364    9.8634  -14.2658 C.3         1 SX3      -0.0442
     16 C7        -25.6879    7.5830  -13.6234 C.3         1 SX3       0.0356
     17 C2        -26.9885    8.4251  -13.7878 C.3         1 SX3      -0.0232
     18 C1        -27.8368    8.4497  -12.4899 C.3         1 SX3      -0.0606
     19 H1        -25.2118    6.8147  -18.0434 H           1 SX3       0.0663
     20 H2        -21.3478    6.2985  -19.6080 H           1 SX3       0.0644
     21 H3        -20.4826    5.8878  -17.3990 H           1 SX3       0.0535
     22 H4        -20.8647    5.6378  -15.1139 H           1 SX3       0.1755
     23 H5        -22.3611    5.8735  -14.3916 H           1 SX3       0.1755
     24 H6        -23.8912    8.9246  -16.2004 H           1 SX3       0.0524
     25 H7        -23.8527    9.3751  -14.5096 H           1 SX3       0.0524
     26 H8        -26.3090    9.3900  -16.3509 H           1 SX3       0.0318
     27 H9        -26.2192   11.8657  -16.1688 H           1 SX3       0.0233
     28 H10       -24.7395   11.2211  -16.8916 H           1 SX3       0.0233
     29 H11       -24.7363   11.7541  -15.2015 H           1 SX3       0.0233
     30 H12       -27.5595   10.4062  -14.4928 H           1 SX3       0.0272
     31 H13       -26.1195   10.3989  -13.4621 H           1 SX3       0.0272
     32 H14       -25.0835    8.0046  -12.8152 H           1 SX3       0.0524
     33 H15       -25.9654    6.5753  -13.3039 H           1 SX3       0.0524
     34 H16       -27.5992    7.9494  -14.5629 H           1 SX3       0.0318
     35 H17       -28.7434    9.0423  -12.6351 H           1 SX3       0.0233
     36 H18       -27.2703    8.8770  -11.6592 H           1 SX3       0.0233
     37 H19       -28.1359    7.4340  -12.2278 H           1 SX3       0.0233
@<TRIPOS>BOND
     1     1     2   1
     2     2     3  ar
     3     2     4  ar
     4     3     8  ar
     5     4     5  ar
     6     5     6  ar
     7     6     7   1
     8     6     8  ar
     9     8     9   1
    10     9    10   2
    11     9    11  am
    12    11    12   1
    13    11    16   1
    14    12    13   1
    15    13    14   1
    16    13    15   1
    17    15    17   1
    18    16    17   1
    19    17    18   1
    20     3    19   1
    21     4    20   1
    22     5    21   1
    23     7    22   1
    24     7    23   1
    25    12    24   1
    26    12    25   1
    27    13    26   1
    28    14    27   1
    29    14    28   1
    30    14    29   1
    31    15    30   1
    32    15    31   1
    33    16    32   1
    34    16    33   1
    35    17    34   1
    36    18    35   1
    37    18    36   1
    38    18    37   1
@<TRIPOS>SUBSTRUCTURE
     1  SX3      2

