@<TRIPOS>MOLECULE
3cj2_ligand_055
    37    38
SMALL
GAST_HUCK
****
This file was generated by PARSER (from files_GN.cpp)

@<TRIPOS>ATOM
      1 BR1       -33.0111   15.7211  -17.3912 Br          1 SX3      -0.0605
      2 C11       -31.3442   15.1241  -16.8203 C.ar        1 SX3       0.0047
      3 C10       -30.9754   15.2507  -15.4662 C.ar        1 SX3      -0.0437
      4 C12       -30.4497   14.5463  -17.7390 C.ar        1 SX3      -0.0597
      5 C13       -29.1957   14.0790  -17.3056 C.ar        1 SX3      -0.0356
      6 C14       -28.8218   14.1897  -15.9491 C.ar        1 SX3       0.0599
      7 N2        -27.6122   13.7153  -15.5852 N.pl3       1 SX3      -0.3308
      8 C9        -29.7195   14.7788  -15.0180 C.ar        1 SX3       0.0698
      9 C8        -29.4248   14.8414  -13.6660 C.2         1 SX3       0.1999
     10 O1        -28.7411   15.8091  -13.3583 O.2         1 SX3      -0.3919
     11 N1        -29.8183   13.9281  -12.7563 N.am        1 SX3      -0.2741
     12 C6        -30.5972   12.7439  -13.0933 C.3         1 SX3       0.0356
     13 C4        -29.7742   11.4557  -12.7982 C.3         1 SX3      -0.0232
     14 C5        -30.5765   10.1714  -13.1330 C.3         1 SX3      -0.0606
     15 C3        -29.2969   11.4634  -11.3146 C.3         1 SX3      -0.0442
     16 C7        -29.4377   14.0184  -11.3527 C.3         1 SX3       0.0356
     17 C2        -28.5667   12.7903  -10.9498 C.3         1 SX3      -0.0232
     18 C1        -28.1695   12.8227   -9.4516 C.3         1 SX3      -0.0606
     19 H1        -31.6429   15.6658  -14.8106 H           1 SX3       0.0663
     20 H2        -30.7146   14.4602  -18.7232 H           1 SX3       0.0644
     21 H3        -28.5575   13.6625  -17.9876 H           1 SX3       0.0535
     22 H4        -27.0304   13.3107  -16.2511 H           1 SX3       0.1755
     23 H5        -27.3152   13.7694  -14.6639 H           1 SX3       0.1755
     24 H6        -30.9117   12.7089  -14.1387 H           1 SX3       0.0524
     25 H7        -31.5140   12.7399  -12.4998 H           1 SX3       0.0524
     26 H8        -28.8864   11.4648  -13.4373 H           1 SX3       0.0318
     27 H9        -29.9685    9.2825  -12.9419 H           1 SX3       0.0233
     28 H10       -30.8632   10.1687  -14.1884 H           1 SX3       0.0233
     29 H11       -31.4816   10.1125  -12.5252 H           1 SX3       0.0233
     30 H12       -28.6214   10.6203  -11.1474 H           1 SX3       0.0272
     31 H13       -30.1606   11.3331  -10.6586 H           1 SX3       0.0272
     32 H14       -30.3459   14.0435  -10.7423 H           1 SX3       0.0524
     33 H15       -28.8853   14.9295  -11.1136 H           1 SX3       0.0524
     34 H16       -27.6449   12.8407  -11.5375 H           1 SX3       0.0318
     35 H17       -27.5210   11.9765   -9.2138 H           1 SX3       0.0233
     36 H18       -29.0560   12.7701   -8.8154 H           1 SX3       0.0233
     37 H19       -27.6302   13.7458   -9.2222 H           1 SX3       0.0233
@<TRIPOS>BOND
     1     1     2   1
     2     2     3  ar
     3     2     4  ar
     4     3     8  ar
     5     4     5  ar
     6     5     6  ar
     7     6     7   1
     8     6     8  ar
     9     8     9   1
    10     9    10   2
    11     9    11  am
    12    11    12   1
    13    11    16   1
    14    12    13   1
    15    13    14   1
    16    13    15   1
    17    15    17   1
    18    16    17   1
    19    17    18   1
    20     3    19   1
    21     4    20   1
    22     5    21   1
    23     7    22   1
    24     7    23   1
    25    12    24   1
    26    12    25   1
    27    13    26   1
    28    14    27   1
    29    14    28   1
    30    14    29   1
    31    15    30   1
    32    15    31   1
    33    16    32   1
    34    16    33   1
    35    17    34   1
    36    18    35   1
    37    18    36   1
    38    18    37   1
@<TRIPOS>SUBSTRUCTURE
     1  SX3      2

