@<TRIPOS>MOLECULE
3cj2_ligand_004
    37    38
SMALL
GAST_HUCK
****
This file was generated by PARSER (from files_GN.cpp)

@<TRIPOS>ATOM
      1 BR1       -24.4021    5.6429  -20.9903 Br          1 SX3      -0.0605
      2 C11       -23.0145    4.8782  -20.0139 C.ar        1 SX3       0.0047
      3 C10       -22.1788    5.6858  -19.2124 C.ar        1 SX3      -0.0437
      4 C12       -22.7839    3.4957  -20.0984 C.ar        1 SX3      -0.0597
      5 C13       -21.7147    2.9251  -19.3945 C.ar        1 SX3      -0.0356
      6 C14       -20.9052    3.7192  -18.5558 C.ar        1 SX3       0.0599
      7 N2        -19.9107    3.0840  -17.9055 N.pl3       1 SX3      -0.3308
      8 C9        -21.1531    5.1167  -18.4133 C.ar        1 SX3       0.0698
      9 C8        -20.3988    5.9399  -17.5585 C.2         1 SX3       0.1999
     10 O1        -19.1915    5.7467  -17.6367 O.2         1 SX3      -0.3919
     11 N1        -20.8631    6.8960  -16.7105 N.am        1 SX3      -0.2741
     12 C6        -22.2797    7.1644  -16.4881 C.3         1 SX3       0.0356
     13 C4        -22.6829    7.1840  -14.9838 C.3         1 SX3      -0.0232
     14 C5        -24.1666    7.5997  -14.7822 C.3         1 SX3      -0.0606
     15 C3        -21.7404    8.1137  -14.1751 C.3         1 SX3      -0.0442
     16 C7        -19.9588    7.7696  -15.9584 C.3         1 SX3       0.0356
     17 C2        -20.2478    7.7553  -14.4246 C.3         1 SX3      -0.0232
     18 C1        -19.3146    8.7033  -13.6204 C.3         1 SX3      -0.0606
     19 H1        -22.3537    6.6933  -19.1953 H           1 SX3       0.0663
     20 H2        -23.3819    2.9139  -20.6859 H           1 SX3       0.0644
     21 H3        -21.5449    1.9217  -19.4826 H           1 SX3       0.0535
     22 H4        -19.7694    2.1343  -18.0443 H           1 SX3       0.1755
     23 H5        -19.3225    3.5702  -17.3098 H           1 SX3       0.1755
     24 H6        -22.9354    6.4282  -16.9438 H           1 SX3       0.0524
     25 H7        -22.5183    8.1314  -16.9373 H           1 SX3       0.0524
     26 H8        -22.5746    6.1685  -14.5898 H           1 SX3       0.0318
     27 H9        -24.4356    7.5559  -13.7216 H           1 SX3       0.0233
     28 H10       -24.8299    6.9253  -15.3295 H           1 SX3       0.0233
     29 H11       -24.3308    8.6199  -15.1426 H           1 SX3       0.0233
     30 H12       -21.9642    8.0151  -13.1075 H           1 SX3       0.0272
     31 H13       -21.9221    9.1583  -14.4557 H           1 SX3       0.0272
     32 H14       -20.0731    8.7934  -16.3305 H           1 SX3       0.0524
     33 H15       -18.9043    7.5116  -16.0865 H           1 SX3       0.0524
     34 H16       -20.0723    6.7363  -14.0609 H           1 SX3       0.0318
     35 H17       -19.5283    8.6290  -12.5500 H           1 SX3       0.0233
     36 H18       -19.4498    9.7438  -13.9294 H           1 SX3       0.0233
     37 H19       -18.2705    8.4287  -13.7764 H           1 SX3       0.0233
@<TRIPOS>BOND
     1     1     2   1
     2     2     3  ar
     3     2     4  ar
     4     3     8  ar
     5     4     5  ar
     6     5     6  ar
     7     6     7   1
     8     6     8  ar
     9     8     9   1
    10     9    10   2
    11     9    11  am
    12    11    12   1
    13    11    16   1
    14    12    13   1
    15    13    14   1
    16    13    15   1
    17    15    17   1
    18    16    17   1
    19    17    18   1
    20     3    19   1
    21     4    20   1
    22     5    21   1
    23     7    22   1
    24     7    23   1
    25    12    24   1
    26    12    25   1
    27    13    26   1
    28    14    27   1
    29    14    28   1
    30    14    29   1
    31    15    30   1
    32    15    31   1
    33    16    32   1
    34    16    33   1
    35    17    34   1
    36    18    35   1
    37    18    36   1
    38    18    37   1
@<TRIPOS>SUBSTRUCTURE
     1  SX3      2

