@<TRIPOS>MOLECULE
3cj2_ligand_076
    37    38
SMALL
GAST_HUCK
****
This file was generated by PARSER (from files_GN.cpp)

@<TRIPOS>ATOM
      1 BR1       -24.3868    8.6413  -24.0750 Br          1 SX3      -0.0605
      2 C11       -24.7539    8.2968  -22.2834 C.ar        1 SX3       0.0047
      3 C10       -24.1716    7.1847  -21.6509 C.ar        1 SX3      -0.0437
      4 C12       -25.5944    9.1568  -21.5628 C.ar        1 SX3      -0.0597
      5 C13       -25.8362    8.9215  -20.1961 C.ar        1 SX3      -0.0356
      6 C14       -25.2412    7.8192  -19.5479 C.ar        1 SX3       0.0599
      7 N2        -25.4722    7.6704  -18.2279 N.pl3       1 SX3      -0.3308
      8 C9        -24.4131    6.9237  -20.2762 C.ar        1 SX3       0.0698
      9 C8        -23.8001    5.8222  -19.6938 C.2         1 SX3       0.1999
     10 O1        -22.5870    5.9482  -19.5767 O.2         1 SX3      -0.3919
     11 N1        -24.4162    4.6761  -19.3273 N.am        1 SX3      -0.2741
     12 C6        -23.6810    3.5455  -18.7745 C.3         1 SX3       0.0356
     13 C4        -23.8330    2.2539  -19.6373 C.3         1 SX3      -0.0232
     14 C5        -22.9134    2.2603  -20.8907 C.3         1 SX3      -0.0606
     15 C3        -25.3397    1.9871  -19.9506 C.3         1 SX3      -0.0442
     16 C7        -25.8493    4.4487  -19.4556 C.3         1 SX3       0.0356
     17 C2        -26.1663    3.2385  -20.3845 C.3         1 SX3      -0.0232
     18 C1        -26.0282    3.6107  -21.8876 C.3         1 SX3      -0.0606
     19 H1        -23.5669    6.5675  -22.1943 H           1 SX3       0.0663
     20 H2        -26.0121    9.9715  -22.0211 H           1 SX3       0.0644
     21 H3        -26.4364    9.5698  -19.6802 H           1 SX3       0.0535
     22 H4        -26.0348    8.3052  -17.7585 H           1 SX3       0.1755
     23 H5        -25.0734    6.9309  -17.7435 H           1 SX3       0.1755
     24 H6        -24.0703    3.3428  -17.7725 H           1 SX3       0.0524
     25 H7        -22.6125    3.7384  -18.6395 H           1 SX3       0.0524
     26 H8        -23.4843    1.4133  -19.0248 H           1 SX3       0.0318
     27 H9        -23.1033    1.3783  -21.5044 H           1 SX3       0.0233
     28 H10       -21.8673    2.2397  -20.5851 H           1 SX3       0.0233
     29 H11       -23.0650    3.1511  -21.4964 H           1 SX3       0.0233
     30 H12       -25.7959    1.5982  -19.0362 H           1 SX3       0.0272
     31 H13       -25.4376    1.1967  -20.7005 H           1 SX3       0.0272
     32 H14       -26.4069    5.3092  -19.8265 H           1 SX3       0.0524
     33 H15       -26.2553    4.2394  -18.4590 H           1 SX3       0.0524
     34 H16       -27.2226    2.9840  -20.2391 H           1 SX3       0.0318
     35 H17       -26.1576    2.7279  -22.5157 H           1 SX3       0.0233
     36 H18       -25.0610    4.0589  -22.1020 H           1 SX3       0.0233
     37 H19       -26.7992    4.3348  -22.1617 H           1 SX3       0.0233
@<TRIPOS>BOND
     1     1     2   1
     2     2     3  ar
     3     2     4  ar
     4     3     8  ar
     5     4     5  ar
     6     5     6  ar
     7     6     7   1
     8     6     8  ar
     9     8     9   1
    10     9    10   2
    11     9    11  am
    12    11    12   1
    13    11    16   1
    14    12    13   1
    15    13    14   1
    16    13    15   1
    17    15    17   1
    18    16    17   1
    19    17    18   1
    20     3    19   1
    21     4    20   1
    22     5    21   1
    23     7    22   1
    24     7    23   1
    25    12    24   1
    26    12    25   1
    27    13    26   1
    28    14    27   1
    29    14    28   1
    30    14    29   1
    31    15    30   1
    32    15    31   1
    33    16    32   1
    34    16    33   1
    35    17    34   1
    36    18    35   1
    37    18    36   1
    38    18    37   1
@<TRIPOS>SUBSTRUCTURE
     1  SX3      2

