@<TRIPOS>MOLECULE
3cj2_ligand_062
    37    38
SMALL
GAST_HUCK
****
This file was generated by PARSER (from files_GN.cpp)

@<TRIPOS>ATOM
      1 BR1       -18.8987   11.0932  -14.5619 Br          1 SX3      -0.0605
      2 C11       -19.7853    9.4985  -14.9021 C.ar        1 SX3       0.0047
      3 C10       -21.1422    9.3499  -14.5634 C.ar        1 SX3      -0.0437
      4 C12       -19.0782    8.4331  -15.4793 C.ar        1 SX3      -0.0597
      5 C13       -19.7221    7.2052  -15.7001 C.ar        1 SX3      -0.0356
      6 C14       -21.0721    7.0362  -15.3340 C.ar        1 SX3       0.0599
      7 N2        -21.6118    5.8195  -15.5141 N.pl3       1 SX3      -0.3308
      8 C9        -21.8043    8.1207  -14.7818 C.ar        1 SX3       0.0698
      9 C8        -23.1432    7.9934  -14.4309 C.2         1 SX3       0.1999
     10 O1        -23.3102    7.4219  -13.3615 O.2         1 SX3      -0.3919
     11 N1        -24.1878    8.3811  -15.1902 N.am        1 SX3      -0.2741
     12 C6        -25.5686    8.1757  -14.7733 C.3         1 SX3       0.0356
     13 C4        -26.3214    7.2236  -15.7510 C.3         1 SX3      -0.0232
     14 C5        -25.9527    5.7329  -15.5134 C.3         1 SX3      -0.0606
     15 C3        -26.1405    7.7059  -17.2247 C.3         1 SX3      -0.0442
     16 C7        -24.0475    9.0066  -16.5000 C.3         1 SX3       0.0356
     17 C2        -24.6962    8.1429  -17.6264 C.3         1 SX3      -0.0232
     18 C1        -23.7836    6.9669  -18.0678 C.3         1 SX3      -0.0606
     19 H1        -21.6407   10.1352  -14.1400 H           1 SX3       0.0663
     20 H2        -18.0952    8.5419  -15.7248 H           1 SX3       0.0644
     21 H3        -19.1968    6.4378  -16.1255 H           1 SX3       0.0535
     22 H4        -21.0543    5.0991  -15.8394 H           1 SX3       0.1755
     23 H5        -22.5368    5.6530  -15.2725 H           1 SX3       0.1755
     24 H6        -26.0797    9.1450  -14.7567 H           1 SX3       0.0524
     25 H7        -25.6591    7.7827  -13.7567 H           1 SX3       0.0524
     26 H8        -27.3876    7.2992  -15.5196 H           1 SX3       0.0318
     27 H9        -26.4161    5.0967  -16.2701 H           1 SX3       0.0233
     28 H10       -26.3146    5.4083  -14.5339 H           1 SX3       0.0233
     29 H11       -24.8761    5.5828  -15.5377 H           1 SX3       0.0233
     30 H12       -26.7874    8.5802  -17.3580 H           1 SX3       0.0272
     31 H13       -26.5096    6.9434  -17.9172 H           1 SX3       0.0272
     32 H14       -23.0158    9.2261  -16.7844 H           1 SX3       0.0524
     33 H15       -24.5487    9.9789  -16.4729 H           1 SX3       0.0524
     34 H16       -24.7985    8.7823  -18.5101 H           1 SX3       0.0318
     35 H17       -24.2615    6.3788  -18.8538 H           1 SX3       0.0233
     36 H18       -23.5641    6.3059  -17.2359 H           1 SX3       0.0233
     37 H19       -22.8365    7.3547  -18.4571 H           1 SX3       0.0233
@<TRIPOS>BOND
     1     1     2   1
     2     2     3  ar
     3     2     4  ar
     4     3     8  ar
     5     4     5  ar
     6     5     6  ar
     7     6     7   1
     8     6     8  ar
     9     8     9   1
    10     9    10   2
    11     9    11  am
    12    11    12   1
    13    11    16   1
    14    12    13   1
    15    13    14   1
    16    13    15   1
    17    15    17   1
    18    16    17   1
    19    17    18   1
    20     3    19   1
    21     4    20   1
    22     5    21   1
    23     7    22   1
    24     7    23   1
    25    12    24   1
    26    12    25   1
    27    13    26   1
    28    14    27   1
    29    14    28   1
    30    14    29   1
    31    15    30   1
    32    15    31   1
    33    16    32   1
    34    16    33   1
    35    17    34   1
    36    18    35   1
    37    18    36   1
    38    18    37   1
@<TRIPOS>SUBSTRUCTURE
     1  SX3      2

