@<TRIPOS>MOLECULE
3cj2_ligand_007
    37    38
SMALL
GAST_HUCK
****
This file was generated by PARSER (from files_GN.cpp)

@<TRIPOS>ATOM
      1 BR1       -23.2151    0.9357  -19.7977 Br          1 SX3      -0.0605
      2 C11       -22.3509    2.5670  -19.5552 C.ar        1 SX3       0.0047
      3 C10       -23.0776    3.7686  -19.6312 C.ar        1 SX3      -0.0437
      4 C12       -20.9681    2.6018  -19.3068 C.ar        1 SX3      -0.0597
      5 C13       -20.3132    3.8343  -19.1467 C.ar        1 SX3      -0.0356
      6 C14       -21.0342    5.0449  -19.2309 C.ar        1 SX3       0.0599
      7 N2        -20.3399    6.1936  -19.0952 N.pl3       1 SX3      -0.3308
      8 C9        -22.4393    5.0209  -19.4504 C.ar        1 SX3       0.0698
      9 C8        -23.2020    6.1858  -19.5119 C.2         1 SX3       0.1999
     10 O1        -22.8903    6.9309  -20.4347 O.2         1 SX3      -0.3919
     11 N1        -24.2268    6.4943  -18.6885 N.am        1 SX3      -0.2741
     12 C6        -25.0683    7.6652  -18.9035 C.3         1 SX3       0.0356
     13 C4        -26.5646    7.2550  -19.0453 C.3         1 SX3      -0.0232
     14 C5        -27.4823    8.4932  -19.2202 C.3         1 SX3      -0.0606
     15 C3        -27.0072    6.3773  -17.8363 C.3         1 SX3      -0.0442
     16 C7        -24.5677    5.7222  -17.4999 C.3         1 SX3       0.0356
     17 C2        -26.0278    5.1879  -17.6048 C.3         1 SX3      -0.0232
     18 C1        -26.4318    4.3425  -16.3671 C.3         1 SX3      -0.0606
     19 H1        -24.0806    3.7208  -19.8255 H           1 SX3       0.0663
     20 H2        -20.4341    1.7319  -19.2606 H           1 SX3       0.0644
     21 H3        -19.3023    3.8422  -18.9796 H           1 SX3       0.0535
     22 H4        -19.3840    6.1568  -18.9366 H           1 SX3       0.1755
     23 H5        -20.7705    7.0581  -19.2016 H           1 SX3       0.1755
     24 H6        -24.8002    8.2318  -19.7991 H           1 SX3       0.0524
     25 H7        -24.9499    8.3461  -18.0535 H           1 SX3       0.0524
     26 H8        -26.6574    6.6500  -19.9529 H           1 SX3       0.0318
     27 H9        -28.5191    8.1791  -19.3573 H           1 SX3       0.0233
     28 H10       -27.1812    9.0669  -20.1001 H           1 SX3       0.0233
     29 H11       -27.4251    9.1431  -18.3446 H           1 SX3       0.0233
     30 H12       -28.0119    5.9862  -18.0247 H           1 SX3       0.0272
     31 H13       -27.0497    6.9959  -16.9333 H           1 SX3       0.0272
     32 H14       -24.4763    6.3680  -16.6211 H           1 SX3       0.0524
     33 H15       -23.8977    4.8804  -17.3174 H           1 SX3       0.0524
     34 H16       -26.0871    4.5280  -18.4772 H           1 SX3       0.0318
     35 H17       -27.4599    3.9883  -16.4708 H           1 SX3       0.0233
     36 H18       -26.3572    4.9313  -15.4500 H           1 SX3       0.0233
     37 H19       -25.7808    3.4702  -16.2784 H           1 SX3       0.0233
@<TRIPOS>BOND
     1     1     2   1
     2     2     3  ar
     3     2     4  ar
     4     3     8  ar
     5     4     5  ar
     6     5     6  ar
     7     6     7   1
     8     6     8  ar
     9     8     9   1
    10     9    10   2
    11     9    11  am
    12    11    12   1
    13    11    16   1
    14    12    13   1
    15    13    14   1
    16    13    15   1
    17    15    17   1
    18    16    17   1
    19    17    18   1
    20     3    19   1
    21     4    20   1
    22     5    21   1
    23     7    22   1
    24     7    23   1
    25    12    24   1
    26    12    25   1
    27    13    26   1
    28    14    27   1
    29    14    28   1
    30    14    29   1
    31    15    30   1
    32    15    31   1
    33    16    32   1
    34    16    33   1
    35    17    34   1
    36    18    35   1
    37    18    36   1
    38    18    37   1
@<TRIPOS>SUBSTRUCTURE
     1  SX3      2

