@<TRIPOS>MOLECULE
3cj2_ligand_051
    37    38
SMALL
GAST_HUCK
****
This file was generated by PARSER (from files_GN.cpp)

@<TRIPOS>ATOM
      1 BR1       -31.4384   13.7988  -18.1509 Br          1 SX3      -0.0605
      2 C11       -30.0032   14.7134  -18.9019 C.ar        1 SX3       0.0047
      3 C10       -30.1892   15.9922  -19.4568 C.ar        1 SX3      -0.0437
      4 C12       -28.7284   14.1201  -18.9186 C.ar        1 SX3      -0.0597
      5 C13       -27.6399   14.8105  -19.4760 C.ar        1 SX3      -0.0356
      6 C14       -27.8150   16.0952  -20.0270 C.ar        1 SX3       0.0599
      7 N2        -26.7265   16.7180  -20.5191 N.pl3       1 SX3      -0.3308
      8 C9        -29.1057   16.6938  -20.0373 C.ar        1 SX3       0.0698
      9 C8        -29.3295   17.9396  -20.6182 C.2         1 SX3       0.1999
     10 O1        -29.6114   18.8187  -19.8131 O.2         1 SX3      -0.3919
     11 N1        -29.2212   18.2047  -21.9387 N.am        1 SX3      -0.2741
     12 C6        -29.2723   19.5622  -22.4669 C.3         1 SX3       0.0356
     13 C4        -27.9687   19.8951  -23.2575 C.3         1 SX3      -0.0232
     14 C5        -28.0051   21.3213  -23.8691 C.3         1 SX3      -0.0606
     15 C3        -27.7080   18.8153  -24.3518 C.3         1 SX3      -0.0442
     16 C7        -29.0597   17.1690  -22.9513 C.3         1 SX3       0.0356
     17 C2        -27.7406   17.3800  -23.7522 C.3         1 SX3      -0.0232
     18 C1        -27.5395   16.2865  -24.8323 C.3         1 SX3      -0.0606
     19 H1        -31.1279   16.4021  -19.4476 H           1 SX3       0.0663
     20 H2        -28.5899   13.1885  -18.5216 H           1 SX3       0.0644
     21 H3        -26.7170   14.3709  -19.4738 H           1 SX3       0.0535
     22 H4        -25.8637   16.2746  -20.5045 H           1 SX3       0.1755
     23 H5        -26.8004   17.6096  -20.8949 H           1 SX3       0.1755
     24 H6        -29.3987   20.3224  -21.6907 H           1 SX3       0.0524
     25 H7        -30.1370   19.6512  -23.1322 H           1 SX3       0.0524
     26 H8        -27.1329   19.8676  -22.5489 H           1 SX3       0.0318
     27 H9        -27.0710   21.5332  -24.3906 H           1 SX3       0.0233
     28 H10       -28.1321   22.0679  -23.0827 H           1 SX3       0.0233
     29 H11       -28.8290   21.4171  -24.5791 H           1 SX3       0.0233
     30 H12       -26.7306   18.9922  -24.8086 H           1 SX3       0.0272
     31 H13       -28.4671   18.8991  -25.1361 H           1 SX3       0.0272
     32 H14       -29.9126   17.2153  -23.6352 H           1 SX3       0.0524
     33 H15       -29.0598   16.1568  -22.5426 H           1 SX3       0.0524
     34 H16       -26.8997   17.2947  -23.0622 H           1 SX3       0.0318
     35 H17       -26.6010   16.4505  -25.3655 H           1 SX3       0.0233
     36 H18       -28.3614   16.2969  -25.5518 H           1 SX3       0.0233
     37 H19       -27.4972   15.3005  -24.3648 H           1 SX3       0.0233
@<TRIPOS>BOND
     1     1     2   1
     2     2     3  ar
     3     2     4  ar
     4     3     8  ar
     5     4     5  ar
     6     5     6  ar
     7     6     7   1
     8     6     8  ar
     9     8     9   1
    10     9    10   2
    11     9    11  am
    12    11    12   1
    13    11    16   1
    14    12    13   1
    15    13    14   1
    16    13    15   1
    17    15    17   1
    18    16    17   1
    19    17    18   1
    20     3    19   1
    21     4    20   1
    22     5    21   1
    23     7    22   1
    24     7    23   1
    25    12    24   1
    26    12    25   1
    27    13    26   1
    28    14    27   1
    29    14    28   1
    30    14    29   1
    31    15    30   1
    32    15    31   1
    33    16    32   1
    34    16    33   1
    35    17    34   1
    36    18    35   1
    37    18    36   1
    38    18    37   1
@<TRIPOS>SUBSTRUCTURE
     1  SX3      2

