@<TRIPOS>MOLECULE
3cj2_ligand_045
    37    38
SMALL
GAST_HUCK
****
This file was generated by PARSER (from files_GN.cpp)

@<TRIPOS>ATOM
      1 BR1       -20.8976   -2.1236  -23.4521 Br          1 SX3      -0.0605
      2 C11       -20.6404   -0.8518  -22.1188 C.ar        1 SX3       0.0047
      3 C10       -21.6037    0.1500  -21.9083 C.ar        1 SX3      -0.0437
      4 C12       -19.4789   -0.8841  -21.3277 C.ar        1 SX3      -0.0597
      5 C13       -19.2826    0.0828  -20.3260 C.ar        1 SX3      -0.0356
      6 C14       -20.2444    1.0895  -20.1039 C.ar        1 SX3       0.0599
      7 N2        -20.0203    1.9644  -19.1031 N.pl3       1 SX3      -0.3308
      8 C9        -21.4178    1.1280  -20.9036 C.ar        1 SX3       0.0698
      9 C8        -22.3993    2.0920  -20.7231 C.2         1 SX3       0.1999
     10 O1        -22.0732    3.2004  -21.1281 O.2         1 SX3      -0.3919
     11 N1        -23.6184    1.8638  -20.1974 N.am        1 SX3      -0.2741
     12 C6        -24.6542    2.8881  -20.1846 C.3         1 SX3       0.0356
     13 C4        -25.9185    2.3987  -20.9521 C.3         1 SX3      -0.0232
     14 C5        -27.0605    3.4502  -20.9275 C.3         1 SX3      -0.0606
     15 C3        -26.3947    1.0302  -20.3808 C.3         1 SX3      -0.0442
     16 C7        -24.0089    0.5982  -19.5922 C.3         1 SX3       0.0356
     17 C2        -25.2332   -0.0076  -20.3374 C.3         1 SX3      -0.0232
     18 C1        -25.6812   -1.3462  -19.6958 C.3         1 SX3      -0.0606
     19 H1        -22.4420    0.1584  -22.4956 H           1 SX3       0.0663
     20 H2        -18.7756   -1.6091  -21.4834 H           1 SX3       0.0644
     21 H3        -18.4387    0.0431  -19.7501 H           1 SX3       0.0535
     22 H4        -19.2293    1.8693  -18.5465 H           1 SX3       0.1755
     23 H5        -20.6694    2.6552  -18.8973 H           1 SX3       0.1755
     24 H6        -24.3328    3.8307  -20.6351 H           1 SX3       0.0524
     25 H7        -24.9134    3.1148  -19.1453 H           1 SX3       0.0524
     26 H8        -25.6359    2.2506  -21.9994 H           1 SX3       0.0318
     27 H9        -27.9204    3.0837  -21.4916 H           1 SX3       0.0233
     28 H10       -26.7272    4.3842  -21.3846 H           1 SX3       0.0233
     29 H11       -27.3777    3.6563  -19.9032 H           1 SX3       0.0233
     30 H12       -27.2050    0.6416  -21.0034 H           1 SX3       0.0272
     31 H13       -26.7877    1.1770  -19.3696 H           1 SX3       0.0272
     32 H14       -24.2805    0.7847  -18.5494 H           1 SX3       0.0524
     33 H15       -23.2074   -0.1454  -19.5698 H           1 SX3       0.0524
     34 H16       -24.9311   -0.2216  -21.3678 H           1 SX3       0.0318
     35 H17       -26.5321   -1.7611  -20.2388 H           1 SX3       0.0233
     36 H18       -25.9683   -1.1969  -18.6530 H           1 SX3       0.0233
     37 H19       -24.8656   -2.0708  -19.7329 H           1 SX3       0.0233
@<TRIPOS>BOND
     1     1     2   1
     2     2     3  ar
     3     2     4  ar
     4     3     8  ar
     5     4     5  ar
     6     5     6  ar
     7     6     7   1
     8     6     8  ar
     9     8     9   1
    10     9    10   2
    11     9    11  am
    12    11    12   1
    13    11    16   1
    14    12    13   1
    15    13    14   1
    16    13    15   1
    17    15    17   1
    18    16    17   1
    19    17    18   1
    20     3    19   1
    21     4    20   1
    22     5    21   1
    23     7    22   1
    24     7    23   1
    25    12    24   1
    26    12    25   1
    27    13    26   1
    28    14    27   1
    29    14    28   1
    30    14    29   1
    31    15    30   1
    32    15    31   1
    33    16    32   1
    34    16    33   1
    35    17    34   1
    36    18    35   1
    37    18    36   1
    38    18    37   1
@<TRIPOS>SUBSTRUCTURE
     1  SX3      2

