@<TRIPOS>MOLECULE
3cj2_ligand_079
    37    38
SMALL
GAST_HUCK
****
This file was generated by PARSER (from files_GN.cpp)

@<TRIPOS>ATOM
      1 BR1       -17.8427    1.3143  -25.2897 Br          1 SX3      -0.0605
      2 C11       -18.2383    1.3242  -23.4714 C.ar        1 SX3       0.0047
      3 C10       -19.5713    1.4415  -23.0406 C.ar        1 SX3      -0.0437
      4 C12       -17.2031    1.2073  -22.5281 C.ar        1 SX3      -0.0597
      5 C13       -17.5016    1.2045  -21.1542 C.ar        1 SX3      -0.0356
      6 C14       -18.8354    1.3231  -20.7114 C.ar        1 SX3       0.0599
      7 N2        -19.0694    1.3253  -19.3837 N.pl3       1 SX3      -0.3308
      8 C9        -19.8877    1.4438  -21.6600 C.ar        1 SX3       0.0698
      9 C8        -21.2199    1.5627  -21.2719 C.2         1 SX3       0.1999
     10 O1        -21.7203    2.6470  -21.5513 O.2         1 SX3      -0.3919
     11 N1        -21.9378    0.6012  -20.6558 N.am        1 SX3      -0.2741
     12 C6        -21.4449   -0.7494  -20.4104 C.3         1 SX3       0.0356
     13 C4        -22.2980   -1.8195  -21.1530 C.3         1 SX3      -0.0232
     14 C5        -21.9315   -1.9159  -22.6599 C.3         1 SX3      -0.0606
     15 C3        -23.8187   -1.5953  -20.8776 C.3         1 SX3      -0.0442
     16 C7        -23.3105    0.8250  -20.2179 C.3         1 SX3       0.0356
     17 C2        -24.3053   -0.1137  -20.9638 C.3         1 SX3      -0.0232
     18 C1        -24.6018    0.3828  -22.4069 C.3         1 SX3      -0.0606
     19 H1        -20.3126    1.5135  -23.7435 H           1 SX3       0.0663
     20 H2        -16.2332    1.1244  -22.8378 H           1 SX3       0.0644
     21 H3        -16.7386    1.1157  -20.4802 H           1 SX3       0.0535
     22 H4        -18.3414    1.2489  -18.7474 H           1 SX3       0.1755
     23 H5        -19.9761    1.4077  -19.0505 H           1 SX3       0.1755
     24 H6        -21.4878   -0.9440  -19.3350 H           1 SX3       0.0524
     25 H7        -20.4022   -0.9025  -20.6921 H           1 SX3       0.0524
     26 H8        -22.0372   -2.7942  -20.7250 H           1 SX3       0.0318
     27 H9        -22.5703   -2.6453  -23.1611 H           1 SX3       0.0233
     28 H10       -20.8951   -2.2428  -22.7705 H           1 SX3       0.0233
     29 H11       -22.0332   -0.9562  -23.1615 H           1 SX3       0.0233
     30 H12       -24.0161   -1.9412  -19.8573 H           1 SX3       0.0272
     31 H13       -24.4179   -2.2283  -21.5371 H           1 SX3       0.0272
     32 H14       -23.6486    1.8582  -20.3377 H           1 SX3       0.0524
     33 H15       -23.3693    0.6223  -19.1436 H           1 SX3       0.0524
     34 H16       -25.2625   -0.0650  -20.4319 H           1 SX3       0.0318
     35 H17       -25.1823   -0.3593  -22.9581 H           1 SX3       0.0233
     36 H18       -23.6863    0.5924  -22.9568 H           1 SX3       0.0233
     37 H19       -25.1842    1.3059  -22.3680 H           1 SX3       0.0233
@<TRIPOS>BOND
     1     1     2   1
     2     2     3  ar
     3     2     4  ar
     4     3     8  ar
     5     4     5  ar
     6     5     6  ar
     7     6     7   1
     8     6     8  ar
     9     8     9   1
    10     9    10   2
    11     9    11  am
    12    11    12   1
    13    11    16   1
    14    12    13   1
    15    13    14   1
    16    13    15   1
    17    15    17   1
    18    16    17   1
    19    17    18   1
    20     3    19   1
    21     4    20   1
    22     5    21   1
    23     7    22   1
    24     7    23   1
    25    12    24   1
    26    12    25   1
    27    13    26   1
    28    14    27   1
    29    14    28   1
    30    14    29   1
    31    15    30   1
    32    15    31   1
    33    16    32   1
    34    16    33   1
    35    17    34   1
    36    18    35   1
    37    18    36   1
    38    18    37   1
@<TRIPOS>SUBSTRUCTURE
     1  SX3      2

