@<TRIPOS>MOLECULE
3cj2_ligand_071
    37    38
SMALL
GAST_HUCK
****
This file was generated by PARSER (from files_GN.cpp)

@<TRIPOS>ATOM
      1 BR1       -33.9226   17.2499   -8.6872 Br          1 SX3      -0.0605
      2 C11       -32.0666   17.1067   -8.6637 C.ar        1 SX3       0.0047
      3 C10       -31.4284   16.1946   -9.5210 C.ar        1 SX3      -0.0437
      4 C12       -31.3068   17.9093   -7.7956 C.ar        1 SX3      -0.0597
      5 C13       -29.9055   17.7917   -7.7809 C.ar        1 SX3      -0.0356
      6 C14       -29.2569   16.8761   -8.6374 C.ar        1 SX3       0.0599
      7 N2        -27.9109   16.7999   -8.5525 N.pl3       1 SX3      -0.3308
      8 C9        -30.0147   16.0804   -9.5384 C.ar        1 SX3       0.0698
      9 C8        -29.4146   15.1776  -10.4149 C.2         1 SX3       0.1999
     10 O1        -28.8662   14.2411   -9.8453 O.2         1 SX3      -0.3919
     11 N1        -29.3698   15.2917  -11.7615 N.am        1 SX3      -0.2741
     12 C6        -29.9410   16.4048  -12.5062 C.3         1 SX3       0.0356
     13 C4        -30.9122   15.9513  -13.6427 C.3         1 SX3      -0.0232
     14 C5        -32.3422   15.6247  -13.1315 C.3         1 SX3      -0.0606
     15 C3        -30.2778   14.8029  -14.4907 C.3         1 SX3      -0.0442
     16 C7        -28.6370   14.3411  -12.5880 C.3         1 SX3       0.0356
     17 C2        -29.5459   13.6923  -13.6738 C.3         1 SX3      -0.0232
     18 C1        -30.4759   12.6026  -13.0710 C.3         1 SX3      -0.0606
     19 H1        -32.0032   15.6031  -10.1324 H           1 SX3       0.0663
     20 H2        -31.7633   18.5733   -7.1684 H           1 SX3       0.0644
     21 H3        -29.3639   18.3743   -7.1372 H           1 SX3       0.0535
     22 H4        -27.4378   17.3551   -7.9151 H           1 SX3       0.1755
     23 H5        -27.4145   16.1760   -9.1017 H           1 SX3       0.1755
     24 H6        -29.1112   16.9446  -12.9716 H           1 SX3       0.0524
     25 H7        -30.4558   17.1364  -11.8821 H           1 SX3       0.0524
     26 H8        -31.0400   16.8082  -14.3168 H           1 SX3       0.0318
     27 H9        -32.9929   15.3635  -13.9697 H           1 SX3       0.0233
     28 H10       -32.7746   16.4929  -12.6303 H           1 SX3       0.0233
     29 H11       -32.3369   14.8005  -12.4226 H           1 SX3       0.0233
     30 H12       -29.5336   15.2617  -15.1501 H           1 SX3       0.0272
     31 H13       -31.0287   14.3528  -15.1463 H           1 SX3       0.0272
     32 H14       -28.1491   13.5411  -12.0265 H           1 SX3       0.0524
     33 H15       -27.8284   14.8777  -13.0934 H           1 SX3       0.0524
     34 H16       -28.8910   13.1638  -14.3785 H           1 SX3       0.0318
     35 H17       -31.1918   12.2530  -13.8168 H           1 SX3       0.0233
     36 H18       -31.0201   12.9732  -12.2049 H           1 SX3       0.0233
     37 H19       -29.8834   11.7460  -12.7453 H           1 SX3       0.0233
@<TRIPOS>BOND
     1     1     2   1
     2     2     3  ar
     3     2     4  ar
     4     3     8  ar
     5     4     5  ar
     6     5     6  ar
     7     6     7   1
     8     6     8  ar
     9     8     9   1
    10     9    10   2
    11     9    11  am
    12    11    12   1
    13    11    16   1
    14    12    13   1
    15    13    14   1
    16    13    15   1
    17    15    17   1
    18    16    17   1
    19    17    18   1
    20     3    19   1
    21     4    20   1
    22     5    21   1
    23     7    22   1
    24     7    23   1
    25    12    24   1
    26    12    25   1
    27    13    26   1
    28    14    27   1
    29    14    28   1
    30    14    29   1
    31    15    30   1
    32    15    31   1
    33    16    32   1
    34    16    33   1
    35    17    34   1
    36    18    35   1
    37    18    36   1
    38    18    37   1
@<TRIPOS>SUBSTRUCTURE
     1  SX3      2

