@<TRIPOS>MOLECULE
3cj2_ligand_056
    37    38
SMALL
GAST_HUCK
****
This file was generated by PARSER (from files_GN.cpp)

@<TRIPOS>ATOM
      1 BR1       -29.3530   14.8405  -19.6408 Br          1 SX3      -0.0605
      2 C11       -28.6798   14.2429  -21.2684 C.ar        1 SX3       0.0047
      3 C10       -27.8726   13.0904  -21.3203 C.ar        1 SX3      -0.0437
      4 C12       -28.9868   14.9373  -22.4509 C.ar        1 SX3      -0.0597
      5 C13       -28.4787   14.4859  -23.6767 C.ar        1 SX3      -0.0356
      6 C14       -27.6847   13.3225  -23.7400 C.ar        1 SX3       0.0599
      7 N2        -27.2389   12.9426  -24.9616 N.pl3       1 SX3      -0.3308
      8 C9        -27.3838   12.5945  -22.5537 C.ar        1 SX3       0.0698
      9 C8        -26.5963   11.4383  -22.5549 C.2         1 SX3       0.1999
     10 O1        -25.4721   11.6252  -23.0014 O.2         1 SX3      -0.3919
     11 N1        -26.9660   10.2198  -22.1066 N.am        1 SX3      -0.2741
     12 C6        -26.0193    9.1060  -22.0382 C.3         1 SX3       0.0356
     13 C4        -25.9041    8.5525  -20.5869 C.3         1 SX3      -0.0232
     14 C5        -24.9616    7.3178  -20.5135 C.3         1 SX3      -0.0606
     15 C3        -27.3121    8.2244  -20.0128 C.3         1 SX3      -0.0442
     16 C7        -28.3161    9.8778  -21.6785 C.3         1 SX3       0.0356
     17 C2        -28.3004    9.4188  -20.1901 C.3         1 SX3      -0.0232
     18 C1        -29.7168    9.0730  -19.6630 C.3         1 SX3      -0.0606
     19 H1        -27.6443   12.6208  -20.4397 H           1 SX3       0.0663
     20 H2        -29.5742   15.7767  -22.4148 H           1 SX3       0.0644
     21 H3        -28.6981   15.0142  -24.5290 H           1 SX3       0.0535
     22 H4        -27.4572   13.4796  -25.7378 H           1 SX3       0.1755
     23 H5        -26.6911   12.1521  -25.0613 H           1 SX3       0.1755
     24 H6        -25.0106    9.3693  -22.3725 H           1 SX3       0.0524
     25 H7        -26.3612    8.3118  -22.7100 H           1 SX3       0.0524
     26 H8        -25.4615    9.3367  -19.9634 H           1 SX3       0.0318
     27 H9        -24.8504    6.9888  -19.4789 H           1 SX3       0.0233
     28 H10       -23.9720    7.5692  -20.8990 H           1 SX3       0.0233
     29 H11       -25.3619    6.4890  -21.1015 H           1 SX3       0.0233
     30 H12       -27.2210    7.9901  -18.9479 H           1 SX3       0.0272
     31 H13       -27.7219    7.3442  -20.5187 H           1 SX3       0.0272
     32 H14       -28.6923    9.0646  -22.3078 H           1 SX3       0.0524
     33 H15       -29.0313   10.6948  -21.7856 H           1 SX3       0.0524
     34 H16       -27.9286   10.2486  -19.5826 H           1 SX3       0.0318
     35 H17       -29.6661    8.7734  -18.6128 H           1 SX3       0.0233
     36 H18       -30.1555    8.2572  -20.2408 H           1 SX3       0.0233
     37 H19       -30.3698    9.9459  -19.7349 H           1 SX3       0.0233
@<TRIPOS>BOND
     1     1     2   1
     2     2     3  ar
     3     2     4  ar
     4     3     8  ar
     5     4     5  ar
     6     5     6  ar
     7     6     7   1
     8     6     8  ar
     9     8     9   1
    10     9    10   2
    11     9    11  am
    12    11    12   1
    13    11    16   1
    14    12    13   1
    15    13    14   1
    16    13    15   1
    17    15    17   1
    18    16    17   1
    19    17    18   1
    20     3    19   1
    21     4    20   1
    22     5    21   1
    23     7    22   1
    24     7    23   1
    25    12    24   1
    26    12    25   1
    27    13    26   1
    28    14    27   1
    29    14    28   1
    30    14    29   1
    31    15    30   1
    32    15    31   1
    33    16    32   1
    34    16    33   1
    35    17    34   1
    36    18    35   1
    37    18    36   1
    38    18    37   1
@<TRIPOS>SUBSTRUCTURE
     1  SX3      2

