@<TRIPOS>MOLECULE
3cj2_ligand_042
    37    38
SMALL
GAST_HUCK
****
This file was generated by PARSER (from files_GN.cpp)

@<TRIPOS>ATOM
      1 BR1       -23.9189   11.2187  -16.5315 Br          1 SX3      -0.0605
      2 C11       -23.1931    9.6324  -15.8954 C.ar        1 SX3       0.0047
      3 C10       -22.1532    8.9986  -16.5970 C.ar        1 SX3      -0.0437
      4 C12       -23.7081    9.0550  -14.7214 C.ar        1 SX3      -0.0597
      5 C13       -23.2019    7.8255  -14.2675 C.ar        1 SX3      -0.0356
      6 C14       -22.1829    7.1657  -14.9828 C.ar        1 SX3       0.0599
      7 N2        -21.7700    5.9621  -14.5407 N.pl3       1 SX3      -0.3308
      8 C9        -21.6413    7.7585  -16.1535 C.ar        1 SX3       0.0698
      9 C8        -20.6705    7.1089  -16.9018 C.2         1 SX3       0.1999
     10 O1        -19.5571    7.1453  -16.3881 O.2         1 SX3      -0.3919
     11 N1        -20.9178    6.3825  -18.0105 N.am        1 SX3      -0.2741
     12 C6        -19.8721    5.6147  -18.6699 C.3         1 SX3       0.0356
     13 C4        -20.1974    4.0910  -18.6161 C.3         1 SX3      -0.0232
     14 C5        -19.1162    3.2581  -19.3535 C.3         1 SX3      -0.0606
     15 C3        -21.6203    3.8185  -19.1922 C.3         1 SX3      -0.0442
     16 C7        -22.2372    6.2418  -18.6131 C.3         1 SX3       0.0356
     17 C2        -22.7006    4.7551  -18.5750 C.3         1 SX3      -0.0232
     18 C1        -24.0750    4.5479  -19.2690 C.3         1 SX3      -0.0606
     19 H1        -21.7870    9.4389  -17.4468 H           1 SX3       0.0663
     20 H2        -24.4522    9.5232  -14.2020 H           1 SX3       0.0644
     21 H3        -23.5925    7.4099  -13.4171 H           1 SX3       0.0535
     22 H4        -22.1981    5.5628  -13.7709 H           1 SX3       0.1755
     23 H5        -21.0608    5.4848  -15.0020 H           1 SX3       0.1755
     24 H6        -18.8805    5.7629  -18.2331 H           1 SX3       0.0524
     25 H7        -19.7936    5.9469  -19.7114 H           1 SX3       0.0524
     26 H8        -20.1901    3.7792  -17.5636 H           1 SX3       0.0318
     27 H9        -19.3560    2.1947  -19.2996 H           1 SX3       0.0233
     28 H10       -18.1396    3.4141  -18.8924 H           1 SX3       0.0233
     29 H11       -19.0543    3.5492  -20.4052 H           1 SX3       0.0233
     30 H12       -21.8918    2.7764  -18.9967 H           1 SX3       0.0272
     31 H13       -21.6056    3.9579  -20.2749 H           1 SX3       0.0272
     32 H14       -22.1863    6.5851  -19.6480 H           1 SX3       0.0524
     33 H15       -23.0025    6.8508  -18.1309 H           1 SX3       0.0524
     34 H16       -22.8250    4.4822  -17.5250 H           1 SX3       0.0318
     35 H17       -24.3735    3.4979  -19.2163 H           1 SX3       0.0233
     36 H18       -24.0283    4.8452  -20.3196 H           1 SX3       0.0233
     37 H19       -24.8417    5.1444  -18.7694 H           1 SX3       0.0233
@<TRIPOS>BOND
     1     1     2   1
     2     2     3  ar
     3     2     4  ar
     4     3     8  ar
     5     4     5  ar
     6     5     6  ar
     7     6     7   1
     8     6     8  ar
     9     8     9   1
    10     9    10   2
    11     9    11  am
    12    11    12   1
    13    11    16   1
    14    12    13   1
    15    13    14   1
    16    13    15   1
    17    15    17   1
    18    16    17   1
    19    17    18   1
    20     3    19   1
    21     4    20   1
    22     5    21   1
    23     7    22   1
    24     7    23   1
    25    12    24   1
    26    12    25   1
    27    13    26   1
    28    14    27   1
    29    14    28   1
    30    14    29   1
    31    15    30   1
    32    15    31   1
    33    16    32   1
    34    16    33   1
    35    17    34   1
    36    18    35   1
    37    18    36   1
    38    18    37   1
@<TRIPOS>SUBSTRUCTURE
     1  SX3      2

