@<TRIPOS>MOLECULE
3cj2_ligand_081
    37    38
SMALL
GAST_HUCK
****
This file was generated by PARSER (from files_GN.cpp)

@<TRIPOS>ATOM
      1 BR1       -30.6302    5.8243  -11.7566 Br          1 SX3      -0.0605
      2 C11       -30.9434    7.4049  -10.8248 C.ar        1 SX3       0.0047
      3 C10       -30.7787    8.6417  -11.4705 C.ar        1 SX3      -0.0437
      4 C12       -31.3155    7.3655   -9.4687 C.ar        1 SX3      -0.0597
      5 C13       -31.5414    8.5642   -8.7693 C.ar        1 SX3      -0.0356
      6 C14       -31.3792    9.8101   -9.4098 C.ar        1 SX3       0.0599
      7 N2        -31.5867   10.9284   -8.6815 N.pl3       1 SX3      -0.3308
      8 C9        -30.9729    9.8583  -10.7698 C.ar        1 SX3       0.0698
      9 C8        -30.7354   11.0680  -11.4150 C.2         1 SX3       0.1999
     10 O1        -31.7436   11.7547  -11.5492 O.2         1 SX3      -0.3919
     11 N1        -29.5290   11.5190  -11.8186 N.am        1 SX3      -0.2741
     12 C6        -28.2883   10.7569  -11.7108 C.3         1 SX3       0.0356
     13 C4        -27.6461   10.5607  -13.1171 C.3         1 SX3      -0.0232
     14 C5        -26.3227    9.7530  -13.0391 C.3         1 SX3      -0.0606
     15 C3        -27.4377   11.9449  -13.7979 C.3         1 SX3      -0.0442
     16 C7        -29.3619   12.8530  -12.3847 C.3         1 SX3       0.0356
     17 C2        -28.7552   12.7757  -13.8163 C.3         1 SX3      -0.0232
     18 C1        -28.5275   14.1893  -14.4116 C.3         1 SX3      -0.0606
     19 H1        -30.4942    8.6448  -12.4546 H           1 SX3       0.0663
     20 H2        -31.4250    6.4688   -8.9902 H           1 SX3       0.0644
     21 H3        -31.8136    8.5221   -7.7820 H           1 SX3       0.0535
     22 H4        -31.8413   10.8587   -7.7461 H           1 SX3       0.1755
     23 H5        -31.4721   11.8038   -9.0819 H           1 SX3       0.1755
     24 H6        -28.4060    9.7701  -11.2622 H           1 SX3       0.0524
     25 H7        -27.5961   11.3040  -11.0623 H           1 SX3       0.0524
     26 H8        -28.3443    9.9811  -13.7317 H           1 SX3       0.0318
     27 H9        -25.9010    9.6224  -14.0370 H           1 SX3       0.0233
     28 H10       -26.5089    8.7632  -12.6164 H           1 SX3       0.0233
     29 H11       -25.5915   10.2676  -12.4131 H           1 SX3       0.0233
     30 H12       -27.0875   11.7960  -14.8226 H           1 SX3       0.0272
     31 H13       -26.6664   12.4984  -13.2531 H           1 SX3       0.0272
     32 H14       -28.6933   13.4223  -11.7322 H           1 SX3       0.0524
     33 H15       -30.2917   13.4286  -12.4426 H           1 SX3       0.0524
     34 H16       -29.4757   12.2586  -14.4600 H           1 SX3       0.0318
     35 H17       -28.1141   14.1159  -15.4202 H           1 SX3       0.0233
     36 H18       -27.8353   14.7567  -13.7879 H           1 SX3       0.0233
     37 H19       -29.4726   14.7334  -14.4699 H           1 SX3       0.0233
@<TRIPOS>BOND
     1     1     2   1
     2     2     3  ar
     3     2     4  ar
     4     3     8  ar
     5     4     5  ar
     6     5     6  ar
     7     6     7   1
     8     6     8  ar
     9     8     9   1
    10     9    10   2
    11     9    11  am
    12    11    12   1
    13    11    16   1
    14    12    13   1
    15    13    14   1
    16    13    15   1
    17    15    17   1
    18    16    17   1
    19    17    18   1
    20     3    19   1
    21     4    20   1
    22     5    21   1
    23     7    22   1
    24     7    23   1
    25    12    24   1
    26    12    25   1
    27    13    26   1
    28    14    27   1
    29    14    28   1
    30    14    29   1
    31    15    30   1
    32    15    31   1
    33    16    32   1
    34    16    33   1
    35    17    34   1
    36    18    35   1
    37    18    36   1
    38    18    37   1
@<TRIPOS>SUBSTRUCTURE
     1  SX3      2

