@<TRIPOS>MOLECULE
3cj2_ligand_066
    37    38
SMALL
GAST_HUCK
****
This file was generated by PARSER (from files_GN.cpp)

@<TRIPOS>ATOM
      1 BR1       -16.8463   -1.2210  -26.9945 Br          1 SX3      -0.0605
      2 C11       -17.6356   -1.1458  -25.3082 C.ar        1 SX3       0.0047
      3 C10       -17.9087    0.0989  -24.7139 C.ar        1 SX3      -0.0437
      4 C12       -17.9545   -2.3362  -24.6278 C.ar        1 SX3      -0.0597
      5 C13       -18.5407   -2.2775  -23.3483 C.ar        1 SX3      -0.0356
      6 C14       -18.7932   -1.0330  -22.7343 C.ar        1 SX3       0.0599
      7 N2        -19.3367   -1.0407  -21.5008 N.pl3       1 SX3      -0.3308
      8 C9        -18.4540    0.1712  -23.4119 C.ar        1 SX3       0.0698
      9 C8        -18.6238    1.4129  -22.7973 C.2         1 SX3       0.1999
     10 O1        -19.7931    1.6752  -22.5314 O.2         1 SX3      -0.3919
     11 N1        -17.6279    2.2569  -22.4511 N.am        1 SX3      -0.2741
     12 C6        -17.8824    3.4735  -21.6815 C.3         1 SX3       0.0356
     13 C4        -17.1096    3.4652  -20.3289 C.3         1 SX3      -0.0232
     14 C5        -17.3289    4.7787  -19.5361 C.3         1 SX3      -0.0606
     15 C3        -15.5958    3.1977  -20.5819 C.3         1 SX3      -0.0442
     16 C7        -16.2236    2.0187  -22.7424 C.3         1 SX3       0.0356
     17 C2        -15.3744    1.9303  -21.4446 C.3         1 SX3      -0.0232
     18 C1        -13.8747    1.6956  -21.7696 C.3         1 SX3      -0.0606
     19 H1        -17.6383    0.9467  -25.2132 H           1 SX3       0.0663
     20 H2        -17.7648   -3.2371  -25.0586 H           1 SX3       0.0644
     21 H3        -18.7651   -3.1476  -22.8635 H           1 SX3       0.0535
     22 H4        -19.5535   -1.8836  -21.0728 H           1 SX3       0.1755
     23 H5        -19.5174   -0.2091  -21.0369 H           1 SX3       0.1755
     24 H6        -18.9415    3.6410  -21.4615 H           1 SX3       0.0524
     25 H7        -17.5487    4.3306  -22.2755 H           1 SX3       0.0524
     26 H8        -17.5045    2.6402  -19.7225 H           1 SX3       0.0318
     27 H9        -16.8035    4.7364  -18.5805 H           1 SX3       0.0233
     28 H10       -18.3904    4.9267  -19.3322 H           1 SX3       0.0233
     29 H11       -16.9609    5.6384  -20.1005 H           1 SX3       0.0233
     30 H12       -15.0755    3.0800  -19.6309 H           1 SX3       0.0272
     31 H13       -15.1602    4.0655  -21.0848 H           1 SX3       0.0272
     32 H14       -15.8616    2.8245  -23.3800 H           1 SX3       0.0524
     33 H15       -16.0248    1.1006  -23.2858 H           1 SX3       0.0524
     34 H16       -15.7253    1.0591  -20.8773 H           1 SX3       0.0318
     35 H17       -13.2971    1.6276  -20.8443 H           1 SX3       0.0233
     36 H18       -13.4770    2.5154  -22.3747 H           1 SX3       0.0233
     37 H19       -13.7449    0.7625  -22.3238 H           1 SX3       0.0233
@<TRIPOS>BOND
     1     1     2   1
     2     2     3  ar
     3     2     4  ar
     4     3     8  ar
     5     4     5  ar
     6     5     6  ar
     7     6     7   1
     8     6     8  ar
     9     8     9   1
    10     9    10   2
    11     9    11  am
    12    11    12   1
    13    11    16   1
    14    12    13   1
    15    13    14   1
    16    13    15   1
    17    15    17   1
    18    16    17   1
    19    17    18   1
    20     3    19   1
    21     4    20   1
    22     5    21   1
    23     7    22   1
    24     7    23   1
    25    12    24   1
    26    12    25   1
    27    13    26   1
    28    14    27   1
    29    14    28   1
    30    14    29   1
    31    15    30   1
    32    15    31   1
    33    16    32   1
    34    16    33   1
    35    17    34   1
    36    18    35   1
    37    18    36   1
    38    18    37   1
@<TRIPOS>SUBSTRUCTURE
     1  SX3      2

