@<TRIPOS>MOLECULE
3cj2_ligand_061
    37    38
SMALL
GAST_HUCK
****
This file was generated by PARSER (from files_GN.cpp)

@<TRIPOS>ATOM
      1 BR1       -23.3533    3.2783  -23.4622 Br          1 SX3      -0.0605
      2 C11       -22.5648    2.0568  -22.3076 C.ar        1 SX3       0.0047
      3 C10       -21.2770    1.5627  -22.5838 C.ar        1 SX3      -0.0437
      4 C12       -23.2443    1.6195  -21.1569 C.ar        1 SX3      -0.0597
      5 C13       -22.6432    0.6884  -20.2972 C.ar        1 SX3      -0.0356
      6 C14       -21.3491    0.1875  -20.5702 C.ar        1 SX3       0.0599
      7 N2        -20.8297   -0.7106  -19.7090 N.pl3       1 SX3      -0.3308
      8 C9        -20.6288    0.6557  -21.7104 C.ar        1 SX3       0.0698
      9 C8        -19.3332    0.2045  -22.0186 C.2         1 SX3       0.1999
     10 O1        -19.2500   -1.0150  -22.0989 O.2         1 SX3      -0.3919
     11 N1        -18.2465    0.9647  -22.2770 N.am        1 SX3      -0.2741
     12 C6        -18.2287    2.4195  -22.1737 C.3         1 SX3       0.0356
     13 C4        -17.1175    2.9329  -21.2161 C.3         1 SX3      -0.0232
     14 C5        -17.0613    4.4859  -21.1774 C.3         1 SX3      -0.0606
     15 C3        -15.7443    2.3268  -21.6201 C.3         1 SX3      -0.0442
     16 C7        -16.9763    0.3815  -22.7008 C.3         1 SX3       0.0356
     17 C2        -15.8174    0.7786  -21.7392 C.3         1 SX3      -0.0232
     18 C1        -14.4582    0.1887  -22.1994 C.3         1 SX3      -0.0606
     19 H1        -20.8122    1.8827  -23.4413 H           1 SX3       0.0663
     20 H2        -24.1799    1.9797  -20.9507 H           1 SX3       0.0644
     21 H3        -23.1527    0.3762  -19.4673 H           1 SX3       0.0535
     22 H4        -21.3356   -0.9950  -18.9294 H           1 SX3       0.1755
     23 H5        -19.9455   -1.0765  -19.8555 H           1 SX3       0.1755
     24 H6        -19.1615    2.8458  -21.8031 H           1 SX3       0.0524
     25 H7        -18.0578    2.8260  -23.1759 H           1 SX3       0.0524
     26 H8        -17.3606    2.5815  -20.2087 H           1 SX3       0.0318
     27 H9        -16.2902    4.8172  -20.4771 H           1 SX3       0.0233
     28 H10       -18.0189    4.8899  -20.8456 H           1 SX3       0.0233
     29 H11       -16.8360    4.8954  -22.1642 H           1 SX3       0.0233
     30 H12       -14.9939    2.6078  -20.8717 H           1 SX3       0.0272
     31 H13       -15.4368    2.7381  -22.5852 H           1 SX3       0.0272
     32 H14       -16.7594    0.7412  -23.7098 H           1 SX3       0.0524
     33 H15       -16.9895   -0.7083  -22.7688 H           1 SX3       0.0524
     34 H16       -16.0334    0.3663  -20.7474 H           1 SX3       0.0318
     35 H17       -13.6682    0.4704  -21.4977 H           1 SX3       0.0233
     36 H18       -14.1929    0.5572  -23.1926 H           1 SX3       0.0233
     37 H19       -14.5126   -0.9023  -22.2324 H           1 SX3       0.0233
@<TRIPOS>BOND
     1     1     2   1
     2     2     3  ar
     3     2     4  ar
     4     3     8  ar
     5     4     5  ar
     6     5     6  ar
     7     6     7   1
     8     6     8  ar
     9     8     9   1
    10     9    10   2
    11     9    11  am
    12    11    12   1
    13    11    16   1
    14    12    13   1
    15    13    14   1
    16    13    15   1
    17    15    17   1
    18    16    17   1
    19    17    18   1
    20     3    19   1
    21     4    20   1
    22     5    21   1
    23     7    22   1
    24     7    23   1
    25    12    24   1
    26    12    25   1
    27    13    26   1
    28    14    27   1
    29    14    28   1
    30    14    29   1
    31    15    30   1
    32    15    31   1
    33    16    32   1
    34    16    33   1
    35    17    34   1
    36    18    35   1
    37    18    36   1
    38    18    37   1
@<TRIPOS>SUBSTRUCTURE
     1  SX3      2

