@<TRIPOS>MOLECULE
3cj2_ligand_065
    37    38
SMALL
GAST_HUCK
****
This file was generated by PARSER (from files_GN.cpp)

@<TRIPOS>ATOM
      1 BR1       -24.1833    6.3504  -20.4413 Br          1 SX3      -0.0605
      2 C11       -24.8499    7.4712  -21.7700 C.ar        1 SX3       0.0047
      3 C10       -25.3476    8.7534  -21.4571 C.ar        1 SX3      -0.0437
      4 C12       -24.8432    7.0223  -23.1004 C.ar        1 SX3      -0.0597
      5 C13       -25.3068    7.8653  -24.1235 C.ar        1 SX3      -0.0356
      6 C14       -25.8103    9.1453  -23.8198 C.ar        1 SX3       0.0599
      7 N2        -26.2349    9.9103  -24.8474 N.pl3       1 SX3      -0.3308
      8 C9        -25.8502    9.6078  -22.4714 C.ar        1 SX3       0.0698
      9 C8        -26.3479   10.8738  -22.1493 C.2         1 SX3       0.1999
     10 O1        -25.7453   11.7882  -22.7009 O.2         1 SX3      -0.3919
     11 N1        -27.4253   11.1397  -21.3784 N.am        1 SX3      -0.2741
     12 C6        -28.2297   10.1164  -20.7240 C.3         1 SX3       0.0356
     13 C4        -28.2338   10.3387  -19.1819 C.3         1 SX3      -0.0232
     14 C5        -29.0345    9.2516  -18.4176 C.3         1 SX3      -0.0606
     15 C3        -28.7622   11.7684  -18.8611 C.3         1 SX3      -0.0442
     16 C7        -27.9081   12.5057  -21.1653 C.3         1 SX3       0.0356
     17 C2        -27.9770   12.8592  -19.6494 C.3         1 SX3      -0.0232
     18 C1        -28.5792   14.2728  -19.4352 C.3         1 SX3      -0.0606
     19 H1        -25.3299    9.0603  -20.4832 H           1 SX3       0.0663
     20 H2        -24.4914    6.0918  -23.3308 H           1 SX3       0.0644
     21 H3        -25.2802    7.5343  -25.0931 H           1 SX3       0.0535
     22 H4        -26.1811    9.5746  -25.7564 H           1 SX3       0.1755
     23 H5        -26.5794   10.8027  -24.6840 H           1 SX3       0.1755
     24 H6        -27.8916    9.1018  -20.9339 H           1 SX3       0.0524
     25 H7        -29.2531   10.1738  -21.1076 H           1 SX3       0.0524
     26 H8        -27.1955   10.2725  -18.8373 H           1 SX3       0.0318
     27 H9        -29.0074    9.4532  -17.3459 H           1 SX3       0.0233
     28 H10       -28.5970    8.2657  -18.5876 H           1 SX3       0.0233
     29 H11       -30.0759    9.2355  -18.7445 H           1 SX3       0.0233
     30 H12       -28.6613   11.9555  -17.7897 H           1 SX3       0.0272
     31 H13       -29.8234   11.8233  -19.1143 H           1 SX3       0.0272
     32 H14       -28.9080   12.5931  -21.6017 H           1 SX3       0.0524
     33 H15       -27.2949   13.2655  -21.6546 H           1 SX3       0.0524
     34 H16       -26.9539   12.8758  -19.2580 H           1 SX3       0.0318
     35 H17       -28.5879   14.5298  -18.3756 H           1 SX3       0.0233
     36 H18       -29.6024   14.3194  -19.8158 H           1 SX3       0.0233
     37 H19       -27.9800   15.0195  -19.9618 H           1 SX3       0.0233
@<TRIPOS>BOND
     1     1     2   1
     2     2     3  ar
     3     2     4  ar
     4     3     8  ar
     5     4     5  ar
     6     5     6  ar
     7     6     7   1
     8     6     8  ar
     9     8     9   1
    10     9    10   2
    11     9    11  am
    12    11    12   1
    13    11    16   1
    14    12    13   1
    15    13    14   1
    16    13    15   1
    17    15    17   1
    18    16    17   1
    19    17    18   1
    20     3    19   1
    21     4    20   1
    22     5    21   1
    23     7    22   1
    24     7    23   1
    25    12    24   1
    26    12    25   1
    27    13    26   1
    28    14    27   1
    29    14    28   1
    30    14    29   1
    31    15    30   1
    32    15    31   1
    33    16    32   1
    34    16    33   1
    35    17    34   1
    36    18    35   1
    37    18    36   1
    38    18    37   1
@<TRIPOS>SUBSTRUCTURE
     1  SX3      2

