@<TRIPOS>MOLECULE
3cj2_ligand_003
    37    38
SMALL
GAST_HUCK
****
This file was generated by PARSER (from files_GN.cpp)

@<TRIPOS>ATOM
      1 BR1       -22.1913    1.0196  -20.0356 Br          1 SX3      -0.0605
      2 C11       -22.3095    2.8497  -19.7281 C.ar        1 SX3       0.0047
      3 C10       -21.3805    3.4907  -18.8863 C.ar        1 SX3      -0.0437
      4 C12       -23.3235    3.5959  -20.3508 C.ar        1 SX3      -0.0597
      5 C13       -23.3900    4.9856  -20.1619 C.ar        1 SX3      -0.0356
      6 C14       -22.4433    5.6385  -19.3464 C.ar        1 SX3       0.0599
      7 N2        -22.5041    6.9816  -19.2866 N.pl3       1 SX3      -0.3308
      8 C9        -21.4472    4.8882  -18.6655 C.ar        1 SX3       0.0698
      9 C8        -20.5306    5.4903  -17.8025 C.2         1 SX3       0.1999
     10 O1        -19.3633    5.3704  -18.1574 O.2         1 SX3      -0.3919
     11 N1        -20.8459    6.1602  -16.6724 N.am        1 SX3      -0.2741
     12 C6        -19.8475    6.8962  -15.9048 C.3         1 SX3       0.0356
     13 C4        -20.2445    8.3960  -15.7683 C.3         1 SX3      -0.0232
     14 C5        -19.2006    9.1948  -14.9403 C.3         1 SX3      -0.0606
     15 C3        -21.6747    8.5115  -15.1614 C.3         1 SX3      -0.0442
     16 C7        -22.1819    6.1814  -16.0907 C.3         1 SX3       0.0356
     17 C2        -22.7037    7.6422  -15.9443 C.3         1 SX3      -0.0232
     18 C1        -24.1051    7.6863  -15.2828 C.3         1 SX3      -0.0606
     19 H1        -20.6582    2.9281  -18.4286 H           1 SX3       0.0663
     20 H2        -24.0047    3.1333  -20.9564 H           1 SX3       0.0644
     21 H3        -24.1216    5.5207  -20.6376 H           1 SX3       0.0535
     22 H4        -23.1914    7.4518  -19.7818 H           1 SX3       0.1755
     23 H5        -21.8463    7.4837  -18.7807 H           1 SX3       0.1755
     24 H6        -18.8475    6.8530  -16.3440 H           1 SX3       0.0524
     25 H7        -19.7708    6.4534  -14.9072 H           1 SX3       0.0524
     26 H8        -20.2656    8.8314  -16.7732 H           1 SX3       0.0318
     27 H9        -19.4773   10.2508  -14.9036 H           1 SX3       0.0233
     28 H10       -18.2116    9.1190  -15.3977 H           1 SX3       0.0233
     29 H11       -19.1387    8.8110  -13.9193 H           1 SX3       0.0233
     30 H12       -21.9925    9.5585  -15.1828 H           1 SX3       0.0272
     31 H13       -21.6502    8.1891  -14.1157 H           1 SX3       0.0272
     32 H14       -22.1385    5.7153  -15.1025 H           1 SX3       0.0524
     33 H15       -22.9115    5.6032  -16.6599 H           1 SX3       0.0524
     34 H16       -22.8063    8.0675  -16.9452 H           1 SX3       0.0318
     35 H17       -24.4641    8.7159  -15.2254 H           1 SX3       0.0233
     36 H18       -24.0695    7.2720  -14.2729 H           1 SX3       0.0233
     37 H19       -24.8192    7.1081  -15.8727 H           1 SX3       0.0233
@<TRIPOS>BOND
     1     1     2   1
     2     2     3  ar
     3     2     4  ar
     4     3     8  ar
     5     4     5  ar
     6     5     6  ar
     7     6     7   1
     8     6     8  ar
     9     8     9   1
    10     9    10   2
    11     9    11  am
    12    11    12   1
    13    11    16   1
    14    12    13   1
    15    13    14   1
    16    13    15   1
    17    15    17   1
    18    16    17   1
    19    17    18   1
    20     3    19   1
    21     4    20   1
    22     5    21   1
    23     7    22   1
    24     7    23   1
    25    12    24   1
    26    12    25   1
    27    13    26   1
    28    14    27   1
    29    14    28   1
    30    14    29   1
    31    15    30   1
    32    15    31   1
    33    16    32   1
    34    16    33   1
    35    17    34   1
    36    18    35   1
    37    18    36   1
    38    18    37   1
@<TRIPOS>SUBSTRUCTURE
     1  SX3      2

