@<TRIPOS>MOLECULE
3cj2_ligand_074
    37    38
SMALL
GAST_HUCK
****
This file was generated by PARSER (from files_GN.cpp)

@<TRIPOS>ATOM
      1 BR1       -28.3072   10.7517  -22.8905 Br          1 SX3      -0.0605
      2 C11       -27.8406   11.9697  -21.5662 C.ar        1 SX3       0.0047
      3 C10       -27.6548   11.5351  -20.2429 C.ar        1 SX3      -0.0437
      4 C12       -27.6831   13.3317  -21.8876 C.ar        1 SX3      -0.0597
      5 C13       -27.3349   14.2538  -20.8861 C.ar        1 SX3      -0.0356
      6 C14       -27.1354   13.8270  -19.5594 C.ar        1 SX3       0.0599
      7 N2        -26.7265   14.7345  -18.6517 N.pl3       1 SX3      -0.3308
      8 C9        -27.3164   12.4550  -19.2226 C.ar        1 SX3       0.0698
      9 C8        -27.1640   12.0010  -17.9225 C.2         1 SX3       0.1999
     10 O1        -26.0779   11.4772  -17.7030 O.2         1 SX3      -0.3919
     11 N1        -28.0831   12.1606  -16.9450 N.am        1 SX3      -0.2741
     12 C6        -27.8023   11.8118  -15.5599 C.3         1 SX3       0.0356
     13 C4        -27.9414   13.0608  -14.6398 C.3         1 SX3      -0.0232
     14 C5        -27.7001   12.6954  -13.1514 C.3         1 SX3      -0.0606
     15 C3        -29.3278   13.7406  -14.8426 C.3         1 SX3      -0.0442
     16 C7        -29.4183   12.7093  -17.1713 C.3         1 SX3       0.0356
     17 C2        -29.6136   14.0166  -16.3492 C.3         1 SX3      -0.0232
     18 C1        -31.0156   14.6450  -16.5641 C.3         1 SX3      -0.0606
     19 H1        -27.7753   10.5435  -20.0246 H           1 SX3       0.0663
     20 H2        -27.8132   13.6475  -22.8499 H           1 SX3       0.0644
     21 H3        -27.2124   15.2382  -21.1377 H           1 SX3       0.0535
     22 H4        -26.5624   15.6555  -18.9142 H           1 SX3       0.1755
     23 H5        -26.5484   14.4607  -17.7353 H           1 SX3       0.1755
     24 H6        -26.8007   11.3978  -15.4149 H           1 SX3       0.0524
     25 H7        -28.5063   11.0370  -15.2406 H           1 SX3       0.0524
     26 H8        -27.1671   13.7810  -14.9280 H           1 SX3       0.0318
     27 H9        -27.7553   13.5881  -12.5254 H           1 SX3       0.0233
     28 H10       -26.7101   12.2519  -13.0302 H           1 SX3       0.0233
     29 H11       -28.4480   11.9773  -12.8042 H           1 SX3       0.0233
     30 H12       -29.3521   14.6866  -14.2939 H           1 SX3       0.0272
     31 H13       -30.1148   13.0961  -14.4386 H           1 SX3       0.0272
     32 H14       -30.1606   11.9664  -16.8636 H           1 SX3       0.0524
     33 H15       -29.6242   12.9260  -18.2229 H           1 SX3       0.0524
     34 H16       -28.8764   14.7407  -16.7019 H           1 SX3       0.0318
     35 H17       -31.1069   15.5673  -15.9891 H           1 SX3       0.0233
     36 H18       -31.8023   13.9563  -16.2499 H           1 SX3       0.0233
     37 H19       -31.1631   14.8871  -17.6182 H           1 SX3       0.0233
@<TRIPOS>BOND
     1     1     2   1
     2     2     3  ar
     3     2     4  ar
     4     3     8  ar
     5     4     5  ar
     6     5     6  ar
     7     6     7   1
     8     6     8  ar
     9     8     9   1
    10     9    10   2
    11     9    11  am
    12    11    12   1
    13    11    16   1
    14    12    13   1
    15    13    14   1
    16    13    15   1
    17    15    17   1
    18    16    17   1
    19    17    18   1
    20     3    19   1
    21     4    20   1
    22     5    21   1
    23     7    22   1
    24     7    23   1
    25    12    24   1
    26    12    25   1
    27    13    26   1
    28    14    27   1
    29    14    28   1
    30    14    29   1
    31    15    30   1
    32    15    31   1
    33    16    32   1
    34    16    33   1
    35    17    34   1
    36    18    35   1
    37    18    36   1
    38    18    37   1
@<TRIPOS>SUBSTRUCTURE
     1  SX3      2

