@<TRIPOS>MOLECULE
3cj2_ligand_095
    37    38
SMALL
GAST_HUCK
****
This file was generated by PARSER (from files_GN.cpp)

@<TRIPOS>ATOM
      1 BR1       -24.5331    7.0797  -20.8763 Br          1 SX3      -0.0605
      2 C11       -23.5440    6.8258  -19.3204 C.ar        1 SX3       0.0047
      3 C10       -24.1947    6.4623  -18.1293 C.ar        1 SX3      -0.0437
      4 C12       -22.1502    6.9935  -19.3300 C.ar        1 SX3      -0.0597
      5 C13       -21.4019    6.7764  -18.1585 C.ar        1 SX3      -0.0356
      6 C14       -22.0447    6.4006  -16.9620 C.ar        1 SX3       0.0599
      7 N2        -21.2821    6.1925  -15.8702 N.pl3       1 SX3      -0.3308
      8 C9        -23.4619    6.2649  -16.9337 C.ar        1 SX3       0.0698
      9 C8        -24.1529    5.9326  -15.7706 C.2         1 SX3       0.1999
     10 O1        -24.7441    4.8641  -15.8443 O.2         1 SX3      -0.3919
     11 N1        -24.2703    6.7229  -14.6831 N.am        1 SX3      -0.2741
     12 C6        -25.0966    6.3463  -13.5448 C.3         1 SX3       0.0356
     13 C4        -26.2575    7.3593  -13.3097 C.3         1 SX3      -0.0232
     14 C5        -27.4486    7.1344  -14.2822 C.3         1 SX3      -0.0606
     15 C3        -25.7154    8.8231  -13.2977 C.3         1 SX3      -0.0442
     16 C7        -23.6359    8.0297  -14.5503 C.3         1 SX3       0.0356
     17 C2        -24.6879    9.1666  -14.4220 C.3         1 SX3      -0.0232
     18 C1        -25.3226    9.5203  -15.7969 C.3         1 SX3      -0.0606
     19 H1        -25.2127    6.3557  -18.1409 H           1 SX3       0.0663
     20 H2        -21.6751    7.2643  -20.1884 H           1 SX3       0.0644
     21 H3        -20.3884    6.8959  -18.1869 H           1 SX3       0.0535
     22 H4        -20.3206    6.3162  -15.9172 H           1 SX3       0.1755
     23 H5        -21.6898    5.9485  -15.0252 H           1 SX3       0.1755
     24 H6        -24.4632    6.3235  -12.6527 H           1 SX3       0.0524
     25 H7        -25.5283    5.3415  -13.6191 H           1 SX3       0.0524
     26 H8        -26.6579    7.1639  -12.3078 H           1 SX3       0.0318
     27 H9        -28.2121    7.8986  -14.1322 H           1 SX3       0.0233
     28 H10       -27.9039    6.1612  -14.0938 H           1 SX3       0.0233
     29 H11       -27.1290    7.1573  -15.3224 H           1 SX3       0.0233
     30 H12       -25.2038    8.9723  -12.3407 H           1 SX3       0.0272
     31 H13       -26.5443    9.5355  -13.3181 H           1 SX3       0.0272
     32 H14       -22.9746    8.2972  -15.3722 H           1 SX3       0.0524
     33 H15       -23.0061    8.0169  -13.6540 H           1 SX3       0.0524
     34 H16       -24.1550   10.0691  -14.1019 H           1 SX3       0.0318
     35 H17       -26.1367   10.2365  -15.6723 H           1 SX3       0.0233
     36 H18       -25.7056    8.6374  -16.3045 H           1 SX3       0.0233
     37 H19       -24.5707    9.9749  -16.4475 H           1 SX3       0.0233
@<TRIPOS>BOND
     1     1     2   1
     2     2     3  ar
     3     2     4  ar
     4     3     8  ar
     5     4     5  ar
     6     5     6  ar
     7     6     7   1
     8     6     8  ar
     9     8     9   1
    10     9    10   2
    11     9    11  am
    12    11    12   1
    13    11    16   1
    14    12    13   1
    15    13    14   1
    16    13    15   1
    17    15    17   1
    18    16    17   1
    19    17    18   1
    20     3    19   1
    21     4    20   1
    22     5    21   1
    23     7    22   1
    24     7    23   1
    25    12    24   1
    26    12    25   1
    27    13    26   1
    28    14    27   1
    29    14    28   1
    30    14    29   1
    31    15    30   1
    32    15    31   1
    33    16    32   1
    34    16    33   1
    35    17    34   1
    36    18    35   1
    37    18    36   1
    38    18    37   1
@<TRIPOS>SUBSTRUCTURE
     1  SX3      2

