@<TRIPOS>MOLECULE
3cj2_ligand_005
    37    38
SMALL
GAST_HUCK
****
This file was generated by PARSER (from files_GN.cpp)

@<TRIPOS>ATOM
      1 BR1       -12.0086   -0.2290  -21.2314 Br          1 SX3      -0.0605
      2 C11       -13.4884    0.6543  -21.9307 C.ar        1 SX3       0.0047
      3 C10       -14.2116    1.5641  -21.1370 C.ar        1 SX3      -0.0437
      4 C12       -13.8919    0.4003  -23.2530 C.ar        1 SX3      -0.0597
      5 C13       -15.0138    1.0593  -23.7850 C.ar        1 SX3      -0.0356
      6 C14       -15.7440    1.9726  -22.9971 C.ar        1 SX3       0.0599
      7 N2        -16.8108    2.5793  -23.5533 N.pl3       1 SX3      -0.3308
      8 C9        -15.3487    2.2261  -21.6572 C.ar        1 SX3       0.0698
      9 C8        -16.0789    3.0809  -20.8407 C.2         1 SX3       0.1999
     10 O1        -15.6068    4.2089  -20.7683 O.2         1 SX3      -0.3919
     11 N1        -17.2271    2.7524  -20.2128 N.am        1 SX3      -0.2741
     12 C6        -18.0162    3.7361  -19.4787 C.3         1 SX3       0.0356
     13 C4        -19.4572    3.8315  -20.0598 C.3         1 SX3      -0.0232
     14 C5        -20.3408    4.8421  -19.2787 C.3         1 SX3      -0.0606
     15 C3        -20.1179    2.4214  -20.1074 C.3         1 SX3      -0.0442
     16 C7        -17.7849    1.4038  -20.2172 C.3         1 SX3       0.0356
     17 C2        -19.2101    1.3896  -20.8399 C.3         1 SX3      -0.0232
     18 C1        -19.8196   -0.0371  -20.8141 C.3         1 SX3      -0.0606
     19 H1        -13.9122    1.7259  -20.1711 H           1 SX3       0.0663
     20 H2        -13.3713   -0.2642  -23.8303 H           1 SX3       0.0644
     21 H3        -15.2962    0.8642  -24.7492 H           1 SX3       0.0535
     22 H4        -17.0623    2.3794  -24.4681 H           1 SX3       0.1755
     23 H5        -17.3351    3.2130  -23.0390 H           1 SX3       0.1755
     24 H6        -17.5759    4.7373  -19.4930 H           1 SX3       0.0524
     25 H7        -18.0734    3.4394  -18.4295 H           1 SX3       0.0524
     26 H8        -19.3651    4.1955  -21.0870 H           1 SX3       0.0318
     27 H9        -21.3379    4.8982  -19.7217 H           1 SX3       0.0233
     28 H10       -19.8988    5.8400  -19.3124 H           1 SX3       0.0233
     29 H11       -20.4448    4.5393  -18.2345 H           1 SX3       0.0233
     30 H12       -21.0780    2.4893  -20.6281 H           1 SX3       0.0272
     31 H13       -20.3113    2.0765  -19.0873 H           1 SX3       0.0272
     32 H14       -17.8440    1.0437  -19.1860 H           1 SX3       0.0524
     33 H15       -17.1701    0.6790  -20.7544 H           1 SX3       0.0524
     34 H16       -19.1272    1.6937  -21.8885 H           1 SX3       0.0318
     35 H17       -20.8112   -0.0332  -21.2692 H           1 SX3       0.0233
     36 H18       -19.9055   -0.4017  -19.7876 H           1 SX3       0.0233
     37 H19       -19.1869   -0.7277  -21.3765 H           1 SX3       0.0233
@<TRIPOS>BOND
     1     1     2   1
     2     2     3  ar
     3     2     4  ar
     4     3     8  ar
     5     4     5  ar
     6     5     6  ar
     7     6     7   1
     8     6     8  ar
     9     8     9   1
    10     9    10   2
    11     9    11  am
    12    11    12   1
    13    11    16   1
    14    12    13   1
    15    13    14   1
    16    13    15   1
    17    15    17   1
    18    16    17   1
    19    17    18   1
    20     3    19   1
    21     4    20   1
    22     5    21   1
    23     7    22   1
    24     7    23   1
    25    12    24   1
    26    12    25   1
    27    13    26   1
    28    14    27   1
    29    14    28   1
    30    14    29   1
    31    15    30   1
    32    15    31   1
    33    16    32   1
    34    16    33   1
    35    17    34   1
    36    18    35   1
    37    18    36   1
    38    18    37   1
@<TRIPOS>SUBSTRUCTURE
     1  SX3      2

