@<TRIPOS>MOLECULE
3cj2_ligand_080
    37    38
SMALL
GAST_HUCK
****
This file was generated by PARSER (from files_GN.cpp)

@<TRIPOS>ATOM
      1 BR1       -31.9378    9.0458  -13.8257 Br          1 SX3      -0.0605
      2 C11       -31.8273    9.8641  -12.1579 C.ar        1 SX3       0.0047
      3 C10       -32.0029   11.2546  -12.0416 C.ar        1 SX3      -0.0437
      4 C12       -31.5724    9.0905  -11.0127 C.ar        1 SX3      -0.0597
      5 C13       -31.4958    9.7078   -9.7521 C.ar        1 SX3      -0.0356
      6 C14       -31.6678   11.1017   -9.6262 C.ar        1 SX3       0.0599
      7 N2        -31.5722   11.6386   -8.3927 N.pl3       1 SX3      -0.3308
      8 C9        -31.9159   11.8923  -10.7813 C.ar        1 SX3       0.0698
      9 C8        -32.1242   13.2682  -10.7047 C.2         1 SX3       0.1999
     10 O1        -33.1222   13.5791  -10.0629 O.2         1 SX3      -0.3919
     11 N1        -31.3327   14.2184  -11.2448 N.am        1 SX3      -0.2741
     12 C6        -30.0551   13.9426  -11.8853 C.3         1 SX3       0.0356
     13 C4        -28.8735   14.6105  -11.1193 C.3         1 SX3      -0.0232
     14 C5        -28.4697   13.8034   -9.8533 C.3         1 SX3      -0.0606
     15 C3        -29.1822   16.1203  -10.8471 C.3         1 SX3      -0.0442
     16 C7        -31.6723   15.6349  -11.1714 C.3         1 SX3       0.0356
     17 C2        -30.6233   16.4267  -10.3340 C.3         1 SX3      -0.0232
     18 C1        -30.8172   16.2155   -8.8064 C.3         1 SX3      -0.0606
     19 H1        -32.1968   11.7974  -12.8876 H           1 SX3       0.0663
     20 H2        -31.4426    8.0801  -11.0935 H           1 SX3       0.0644
     21 H3        -31.3074    9.1322   -8.9265 H           1 SX3       0.0535
     22 H4        -31.4042   11.0679   -7.6248 H           1 SX3       0.1755
     23 H5        -31.6747   12.5959   -8.2647 H           1 SX3       0.1755
     24 H6        -30.0831   14.3346  -12.9067 H           1 SX3       0.0524
     25 H7        -29.8252   12.8806  -11.9858 H           1 SX3       0.0524
     26 H8        -27.9958   14.5845  -11.7790 H           1 SX3       0.0318
     27 H9        -27.7204   14.3449   -9.2735 H           1 SX3       0.0233
     28 H10       -28.0412   12.8426  -10.1500 H           1 SX3       0.0233
     29 H11       -29.3309   13.6007   -9.2195 H           1 SX3       0.0233
     30 H12       -29.0580   16.6504  -11.7970 H           1 SX3       0.0272
     31 H13       -28.4409   16.5396  -10.1623 H           1 SX3       0.0272
     32 H14       -32.6659   15.8312  -10.7609 H           1 SX3       0.0524
     33 H15       -31.6924   16.0407  -12.1901 H           1 SX3       0.0524
     34 H16       -30.8018   17.4935  -10.5114 H           1 SX3       0.0318
     35 H17       -30.0041   16.6840   -8.2461 H           1 SX3       0.0233
     36 H18       -30.8578   15.1579   -8.5489 H           1 SX3       0.0233
     37 H19       -31.7568   16.6734   -8.4856 H           1 SX3       0.0233
@<TRIPOS>BOND
     1     1     2   1
     2     2     3  ar
     3     2     4  ar
     4     3     8  ar
     5     4     5  ar
     6     5     6  ar
     7     6     7   1
     8     6     8  ar
     9     8     9   1
    10     9    10   2
    11     9    11  am
    12    11    12   1
    13    11    16   1
    14    12    13   1
    15    13    14   1
    16    13    15   1
    17    15    17   1
    18    16    17   1
    19    17    18   1
    20     3    19   1
    21     4    20   1
    22     5    21   1
    23     7    22   1
    24     7    23   1
    25    12    24   1
    26    12    25   1
    27    13    26   1
    28    14    27   1
    29    14    28   1
    30    14    29   1
    31    15    30   1
    32    15    31   1
    33    16    32   1
    34    16    33   1
    35    17    34   1
    36    18    35   1
    37    18    36   1
    38    18    37   1
@<TRIPOS>SUBSTRUCTURE
     1  SX3      2

