@<TRIPOS>MOLECULE
3cj2_ligand_035
    37    38
SMALL
GAST_HUCK
****
This file was generated by PARSER (from files_GN.cpp)

@<TRIPOS>ATOM
      1 BR1       -23.2173   -1.6314  -23.1453 Br          1 SX3      -0.0605
      2 C11       -21.8528   -0.9183  -22.0969 C.ar        1 SX3       0.0047
      3 C10       -22.0658    0.2552  -21.3519 C.ar        1 SX3      -0.0437
      4 C12       -20.5988   -1.5478  -22.0674 C.ar        1 SX3      -0.0597
      5 C13       -19.5772   -1.0268  -21.2525 C.ar        1 SX3      -0.0356
      6 C14       -19.8036    0.1152  -20.4515 C.ar        1 SX3       0.0599
      7 N2        -18.8251    0.4819  -19.5978 N.pl3       1 SX3      -0.3308
      8 C9        -21.0378    0.8147  -20.5427 C.ar        1 SX3       0.0698
      9 C8        -21.2680    2.0212  -19.8698 C.2         1 SX3       0.1999
     10 O1        -22.3352    2.0540  -19.2633 O.2         1 SX3      -0.3919
     11 N1        -20.4564    3.1023  -19.8714 N.am        1 SX3      -0.2741
     12 C6        -20.7314    4.2827  -19.0573 C.3         1 SX3       0.0356
     13 C4        -19.5237    4.6135  -18.1286 C.3         1 SX3      -0.0232
     14 C5        -19.7940    5.8815  -17.2772 C.3         1 SX3      -0.0606
     15 C3        -18.2121    4.7525  -18.9605 C.3         1 SX3      -0.0442
     16 C7        -19.2804    3.2454  -20.7230 C.3         1 SX3       0.0356
     17 C2        -17.9947    3.5178  -19.8854 C.3         1 SX3      -0.0232
     18 C1        -16.7334    3.6544  -20.7839 C.3         1 SX3      -0.0606
     19 H1        -22.9802    0.7141  -21.4162 H           1 SX3       0.0663
     20 H2        -20.4283   -2.3859  -22.6265 H           1 SX3       0.0644
     21 H3        -18.6767   -1.5084  -21.2306 H           1 SX3       0.0535
     22 H4        -17.9733    0.0189  -19.6175 H           1 SX3       0.1755
     23 H5        -18.9646    1.1872  -18.9464 H           1 SX3       0.1755
     24 H6        -21.6157    4.1749  -18.4237 H           1 SX3       0.0524
     25 H7        -20.9232    5.1360  -19.7174 H           1 SX3       0.0524
     26 H8        -19.3945    3.7707  -17.4410 H           1 SX3       0.0318
     27 H9        -18.9449    6.0872  -16.6225 H           1 SX3       0.0233
     28 H10       -20.6792    5.7346  -16.6547 H           1 SX3       0.0233
     29 H11       -19.9594    6.7485  -17.9188 H           1 SX3       0.0233
     30 H12       -17.3588    4.8489  -18.2841 H           1 SX3       0.0272
     31 H13       -18.2605    5.6581  -19.5717 H           1 SX3       0.0272
     32 H14       -19.4317    4.0983  -21.3848 H           1 SX3       0.0524
     33 H15       -19.1157    2.3878  -21.3771 H           1 SX3       0.0524
     34 H16       -17.8363    2.6466  -19.2426 H           1 SX3       0.0318
     35 H17       -15.8422    3.7952  -20.1687 H           1 SX3       0.0233
     36 H18       -16.8284    4.5051  -21.4642 H           1 SX3       0.0233
     37 H19       -16.5995    2.7457  -21.3765 H           1 SX3       0.0233
@<TRIPOS>BOND
     1     1     2   1
     2     2     3  ar
     3     2     4  ar
     4     3     8  ar
     5     4     5  ar
     6     5     6  ar
     7     6     7   1
     8     6     8  ar
     9     8     9   1
    10     9    10   2
    11     9    11  am
    12    11    12   1
    13    11    16   1
    14    12    13   1
    15    13    14   1
    16    13    15   1
    17    15    17   1
    18    16    17   1
    19    17    18   1
    20     3    19   1
    21     4    20   1
    22     5    21   1
    23     7    22   1
    24     7    23   1
    25    12    24   1
    26    12    25   1
    27    13    26   1
    28    14    27   1
    29    14    28   1
    30    14    29   1
    31    15    30   1
    32    15    31   1
    33    16    32   1
    34    16    33   1
    35    17    34   1
    36    18    35   1
    37    18    36   1
    38    18    37   1
@<TRIPOS>SUBSTRUCTURE
     1  SX3      2

