@<TRIPOS>MOLECULE
3cj2_ligand_038
    37    38
SMALL
GAST_HUCK
****
This file was generated by PARSER (from files_GN.cpp)

@<TRIPOS>ATOM
      1 BR1       -19.6458    8.5307  -13.5129 Br          1 SX3      -0.0605
      2 C11       -20.3456    8.1124  -15.1848 C.ar        1 SX3       0.0047
      3 C10       -20.5916    6.7760  -15.5508 C.ar        1 SX3      -0.0437
      4 C12       -20.6054    9.1458  -16.0996 C.ar        1 SX3      -0.0597
      5 C13       -21.0744    8.8461  -17.3899 C.ar        1 SX3      -0.0356
      6 C14       -21.2884    7.5086  -17.7760 C.ar        1 SX3       0.0599
      7 N2        -21.6678    7.2516  -19.0414 N.pl3       1 SX3      -0.3308
      8 C9        -21.0668    6.4640  -16.8463 C.ar        1 SX3       0.0698
      9 C8        -21.2360    5.1443  -17.2309 C.2         1 SX3       0.1999
     10 O1        -22.3896    4.7561  -17.1014 O.2         1 SX3      -0.3919
     11 N1        -20.3010    4.4022  -17.8601 N.am        1 SX3      -0.2741
     12 C6        -20.5969    3.0754  -18.3848 C.3         1 SX3       0.0356
     13 C4        -20.3074    2.9815  -19.9109 C.3         1 SX3      -0.0232
     14 C5        -20.5604    1.5506  -20.4556 C.3         1 SX3      -0.0606
     15 C3        -18.8603    3.4604  -20.2170 C.3         1 SX3      -0.0442
     16 C7        -18.9275    4.8463  -18.0646 C.3         1 SX3       0.0356
     17 C2        -18.5555    4.8480  -19.5781 C.3         1 SX3      -0.0232
     18 C1        -17.0719    5.2410  -19.8161 C.3         1 SX3      -0.0606
     19 H1        -20.4009    6.0366  -14.8719 H           1 SX3       0.0663
     20 H2        -20.4475   10.1180  -15.8291 H           1 SX3       0.0644
     21 H3        -21.2471    9.6068  -18.0509 H           1 SX3       0.0535
     22 H4        -21.6679    7.9644  -19.6863 H           1 SX3       0.1755
     23 H5        -21.8296    6.3428  -19.3343 H           1 SX3       0.1755
     24 H6        -21.6375    2.7760  -18.2353 H           1 SX3       0.0524
     25 H7        -19.9794    2.3475  -17.8523 H           1 SX3       0.0524
     26 H8        -21.0021    3.6539  -20.4206 H           1 SX3       0.0318
     27 H9        -20.3801    1.5173  -21.5313 H           1 SX3       0.0233
     28 H10       -21.5944    1.2534  -20.2736 H           1 SX3       0.0233
     29 H11       -19.9000    0.8330  -19.9661 H           1 SX3       0.0233
     30 H12       -18.7224    3.5243  -21.3014 H           1 SX3       0.0272
     31 H13       -18.1538    2.7195  -19.8279 H           1 SX3       0.0272
     32 H14       -18.2568    4.1757  -17.5220 H           1 SX3       0.0524
     33 H15       -18.7349    5.8462  -17.6734 H           1 SX3       0.0524
     34 H16       -19.1789    5.6001  -20.0754 H           1 SX3       0.0318
     35 H17       -16.8856    5.3813  -20.8857 H           1 SX3       0.0233
     36 H18       -16.4035    4.4600  -19.4472 H           1 SX3       0.0233
     37 H19       -16.8296    6.1710  -19.2973 H           1 SX3       0.0233
@<TRIPOS>BOND
     1     1     2   1
     2     2     3  ar
     3     2     4  ar
     4     3     8  ar
     5     4     5  ar
     6     5     6  ar
     7     6     7   1
     8     6     8  ar
     9     8     9   1
    10     9    10   2
    11     9    11  am
    12    11    12   1
    13    11    16   1
    14    12    13   1
    15    13    14   1
    16    13    15   1
    17    15    17   1
    18    16    17   1
    19    17    18   1
    20     3    19   1
    21     4    20   1
    22     5    21   1
    23     7    22   1
    24     7    23   1
    25    12    24   1
    26    12    25   1
    27    13    26   1
    28    14    27   1
    29    14    28   1
    30    14    29   1
    31    15    30   1
    32    15    31   1
    33    16    32   1
    34    16    33   1
    35    17    34   1
    36    18    35   1
    37    18    36   1
    38    18    37   1
@<TRIPOS>SUBSTRUCTURE
     1  SX3      2

