@<TRIPOS>MOLECULE
3cj2_ligand_034
    37    38
SMALL
GAST_HUCK
****
This file was generated by PARSER (from files_GN.cpp)

@<TRIPOS>ATOM
      1 BR1       -25.6371    2.8263  -18.0216 Br          1 SX3      -0.0605
      2 C11       -23.9750    3.5226  -18.4842 C.ar        1 SX3       0.0047
      3 C10       -23.7028    4.8884  -18.2830 C.ar        1 SX3      -0.0437
      4 C12       -22.9876    2.6842  -19.0237 C.ar        1 SX3      -0.0597
      5 C13       -21.7265    3.2091  -19.3600 C.ar        1 SX3      -0.0356
      6 C14       -21.4428    4.5754  -19.1561 C.ar        1 SX3       0.0599
      7 N2        -20.2211    5.0236  -19.5079 N.pl3       1 SX3      -0.3308
      8 C9        -22.4393    5.4296  -18.6153 C.ar        1 SX3       0.0698
      9 C8        -22.2107    6.7809  -18.4060 C.2         1 SX3       0.1999
     10 O1        -22.7275    7.4942  -19.2542 O.2         1 SX3      -0.3919
     11 N1        -21.5249    7.3019  -17.3701 N.am        1 SX3      -0.2741
     12 C6        -21.0133    6.5037  -16.2645 C.3         1 SX3       0.0356
     13 C4        -21.6534    6.9396  -14.9149 C.3         1 SX3      -0.0232
     14 C5        -23.0855    6.3637  -14.7267 C.3         1 SX3      -0.0606
     15 C3        -21.5660    8.4909  -14.7315 C.3         1 SX3      -0.0442
     16 C7        -21.2608    8.7284  -17.2555 C.3         1 SX3       0.0356
     17 C2        -21.9362    9.3355  -15.9911 C.3         1 SX3      -0.0232
     18 C1        -23.4610    9.5529  -16.1992 C.3         1 SX3      -0.0606
     19 H1        -24.4318    5.4848  -17.8830 H           1 SX3       0.0663
     20 H2        -23.1827    1.6838  -19.1620 H           1 SX3       0.0644
     21 H3        -21.0154    2.5761  -19.7453 H           1 SX3       0.0535
     22 H4        -19.5678    4.4128  -19.8811 H           1 SX3       0.1755
     23 H5        -19.9922    5.9643  -19.3999 H           1 SX3       0.1755
     24 H6        -19.9275    6.6473  -16.2018 H           1 SX3       0.0524
     25 H7        -21.1666    5.4276  -16.3961 H           1 SX3       0.0524
     26 H8        -21.0510    6.4925  -14.1186 H           1 SX3       0.0318
     27 H9        -23.5232    6.7136  -13.7871 H           1 SX3       0.0233
     28 H10       -23.0445    5.2764  -14.6942 H           1 SX3       0.0233
     29 H11       -23.7439    6.6479  -15.5463 H           1 SX3       0.0233
     30 H12       -20.5290    8.7272  -14.4728 H           1 SX3       0.0272
     31 H13       -22.1735    8.8042  -13.8799 H           1 SX3       0.0272
     32 H14       -21.5664    9.3096  -18.1276 H           1 SX3       0.0524
     33 H15       -20.1794    8.8779  -17.1771 H           1 SX3       0.0524
     34 H16       -21.5121   10.3351  -15.8378 H           1 SX3       0.0318
     35 H17       -23.9395    9.8348  -15.2587 H           1 SX3       0.0233
     36 H18       -23.9463    8.6577  -16.5860 H           1 SX3       0.0233
     37 H19       -23.6252   10.3565  -16.9199 H           1 SX3       0.0233
@<TRIPOS>BOND
     1     1     2   1
     2     2     3  ar
     3     2     4  ar
     4     3     8  ar
     5     4     5  ar
     6     5     6  ar
     7     6     7   1
     8     6     8  ar
     9     8     9   1
    10     9    10   2
    11     9    11  am
    12    11    12   1
    13    11    16   1
    14    12    13   1
    15    13    14   1
    16    13    15   1
    17    15    17   1
    18    16    17   1
    19    17    18   1
    20     3    19   1
    21     4    20   1
    22     5    21   1
    23     7    22   1
    24     7    23   1
    25    12    24   1
    26    12    25   1
    27    13    26   1
    28    14    27   1
    29    14    28   1
    30    14    29   1
    31    15    30   1
    32    15    31   1
    33    16    32   1
    34    16    33   1
    35    17    34   1
    36    18    35   1
    37    18    36   1
    38    18    37   1
@<TRIPOS>SUBSTRUCTURE
     1  SX3      2

