@<TRIPOS>MOLECULE
3cj2_ligand_016
    37    38
SMALL
GAST_HUCK
****
This file was generated by PARSER (from files_GN.cpp)

@<TRIPOS>ATOM
      1 BR1       -19.9646    1.0347  -19.7451 Br          1 SX3      -0.0605
      2 C11       -20.5520    2.7845  -19.5080 C.ar        1 SX3       0.0047
      3 C10       -21.8988    3.0449  -19.1950 C.ar        1 SX3      -0.0437
      4 C12       -19.6476    3.8494  -19.6532 C.ar        1 SX3      -0.0597
      5 C13       -20.0883    5.1734  -19.4862 C.ar        1 SX3      -0.0356
      6 C14       -21.4356    5.4447  -19.1707 C.ar        1 SX3       0.0599
      7 N2        -21.7932    6.7335  -18.9978 N.pl3       1 SX3      -0.3308
      8 C9        -22.3609    4.3742  -19.0339 C.ar        1 SX3       0.0698
      9 C8        -23.7055    4.5921  -18.7430 C.2         1 SX3       0.1999
     10 O1        -24.0455    4.1601  -17.6469 O.2         1 SX3      -0.3919
     11 N1        -24.5926    5.2206  -19.5432 N.am        1 SX3      -0.2741
     12 C6        -25.9495    5.5272  -19.1063 C.3         1 SX3       0.0356
     13 C4        -26.2165    7.0614  -19.1748 C.3         1 SX3      -0.0232
     14 C5        -27.6659    7.4152  -18.7453 C.3         1 SX3      -0.0606
     15 C3        -25.8947    7.6032  -20.5997 C.3         1 SX3      -0.0442
     16 C7        -24.2966    5.6323  -20.9098 C.3         1 SX3       0.0356
     17 C2        -24.4742    7.1719  -21.0693 C.3         1 SX3      -0.0232
     18 C1        -24.1724    7.6543  -22.5121 C.3         1 SX3      -0.0606
     19 H1        -22.5436    2.2556  -19.0995 H           1 SX3       0.0663
     20 H2        -18.6680    3.6641  -19.8794 H           1 SX3       0.0644
     21 H3        -19.4167    5.9379  -19.5899 H           1 SX3       0.0535
     22 H4        -21.1501    7.4449  -19.1510 H           1 SX3       0.1755
     23 H5        -22.7039    6.9579  -18.7503 H           1 SX3       0.1755
     24 H6        -26.1602    5.1952  -18.0858 H           1 SX3       0.0524
     25 H7        -26.6568    5.0013  -19.7543 H           1 SX3       0.0524
     26 H8        -25.5381    7.5512  -18.4665 H           1 SX3       0.0318
     27 H9        -27.8151    8.4961  -18.7742 H           1 SX3       0.0233
     28 H10       -27.8514    7.0726  -17.7252 H           1 SX3       0.0233
     29 H11       -28.3922    6.9431  -19.4100 H           1 SX3       0.0233
     30 H12       -25.9531    8.6966  -20.5909 H           1 SX3       0.0272
     31 H13       -26.6399    7.2297  -21.3087 H           1 SX3       0.0272
     32 H14       -24.9811    5.1152  -21.5891 H           1 SX3       0.0524
     33 H15       -23.2921    5.3605  -21.2333 H           1 SX3       0.0524
     34 H16       -23.7475    7.6562  -20.4142 H           1 SX3       0.0318
     35 H17       -24.2731    8.7407  -22.5738 H           1 SX3       0.0233
     36 H18       -24.8611    7.1958  -23.2250 H           1 SX3       0.0233
     37 H19       -23.1506    7.3924  -22.7919 H           1 SX3       0.0233
@<TRIPOS>BOND
     1     1     2   1
     2     2     3  ar
     3     2     4  ar
     4     3     8  ar
     5     4     5  ar
     6     5     6  ar
     7     6     7   1
     8     6     8  ar
     9     8     9   1
    10     9    10   2
    11     9    11  am
    12    11    12   1
    13    11    16   1
    14    12    13   1
    15    13    14   1
    16    13    15   1
    17    15    17   1
    18    16    17   1
    19    17    18   1
    20     3    19   1
    21     4    20   1
    22     5    21   1
    23     7    22   1
    24     7    23   1
    25    12    24   1
    26    12    25   1
    27    13    26   1
    28    14    27   1
    29    14    28   1
    30    14    29   1
    31    15    30   1
    32    15    31   1
    33    16    32   1
    34    16    33   1
    35    17    34   1
    36    18    35   1
    37    18    36   1
    38    18    37   1
@<TRIPOS>SUBSTRUCTURE
     1  SX3      2

