@<TRIPOS>MOLECULE
3cj2_ligand_087
    37    38
SMALL
GAST_HUCK
****
This file was generated by PARSER (from files_GN.cpp)

@<TRIPOS>ATOM
      1 BR1       -27.7765   13.9486  -18.9277 Br          1 SX3      -0.0605
      2 C11       -27.7027   15.5350  -19.8981 C.ar        1 SX3       0.0047
      3 C10       -28.8425   16.3539  -19.9930 C.ar        1 SX3      -0.0437
      4 C12       -26.5109   15.9234  -20.5308 C.ar        1 SX3      -0.0597
      5 C13       -26.4535   17.1305  -21.2513 C.ar        1 SX3      -0.0356
      6 C14       -27.5909   17.9587  -21.3516 C.ar        1 SX3       0.0599
      7 N2        -27.4774   19.1083  -22.0469 N.pl3       1 SX3      -0.3308
      8 C9        -28.8005   17.5653  -20.7209 C.ar        1 SX3       0.0698
      9 C8        -29.9390   18.3538  -20.7727 C.2         1 SX3       0.1999
     10 O1        -29.9439   19.2451  -19.9312 O.2         1 SX3      -0.3919
     11 N1        -30.9680   18.1853  -21.6272 N.am        1 SX3      -0.2741
     12 C6        -30.9851   17.1817  -22.6839 C.3         1 SX3       0.0356
     13 C4        -31.1558   17.8226  -24.0954 C.3         1 SX3      -0.0232
     14 C5        -29.8238   18.3883  -24.6605 C.3         1 SX3      -0.0606
     15 C3        -32.3298   18.8542  -24.1033 C.3         1 SX3      -0.0442
     16 C7        -32.1715   19.0018  -21.5538 C.3         1 SX3       0.0356
     17 C2        -32.3953   19.8062  -22.8661 C.3         1 SX3      -0.0232
     18 C1        -31.4618   21.0471  -22.9541 C.3         1 SX3      -0.0606
     19 H1        -29.7026   16.0601  -19.5151 H           1 SX3       0.0663
     20 H2        -25.6821   15.3345  -20.4734 H           1 SX3       0.0644
     21 H3        -25.5720   17.4034  -21.6962 H           1 SX3       0.0535
     22 H4        -26.6377   19.3352  -22.4754 H           1 SX3       0.1755
     23 H5        -28.2373   19.7056  -22.1367 H           1 SX3       0.1755
     24 H6        -31.8305   16.5096  -22.5003 H           1 SX3       0.0524
     25 H7        -30.0989   16.5442  -22.6989 H           1 SX3       0.0524
     26 H8        -31.4410   17.0159  -24.7760 H           1 SX3       0.0318
     27 H9        -29.9848   18.7790  -25.6689 H           1 SX3       0.0233
     28 H10       -29.0774   17.5930  -24.7229 H           1 SX3       0.0233
     29 H11       -29.4199   19.1805  -24.0358 H           1 SX3       0.0233
     30 H12       -33.2658   18.2832  -24.1206 H           1 SX3       0.0272
     31 H13       -32.3123   19.4394  -25.0286 H           1 SX3       0.0272
     32 H14       -32.1814   19.7020  -20.7140 H           1 SX3       0.0524
     33 H15       -33.0261   18.3370  -21.3902 H           1 SX3       0.0524
     34 H16       -33.4147   20.2054  -22.8291 H           1 SX3       0.0318
     35 H17       -31.5433   21.5224  -23.9340 H           1 SX3       0.0233
     36 H18       -30.4179   20.7866  -22.7745 H           1 SX3       0.0233
     37 H19       -31.7548   21.7802  -22.1985 H           1 SX3       0.0233
@<TRIPOS>BOND
     1     1     2   1
     2     2     3  ar
     3     2     4  ar
     4     3     8  ar
     5     4     5  ar
     6     5     6  ar
     7     6     7   1
     8     6     8  ar
     9     8     9   1
    10     9    10   2
    11     9    11  am
    12    11    12   1
    13    11    16   1
    14    12    13   1
    15    13    14   1
    16    13    15   1
    17    15    17   1
    18    16    17   1
    19    17    18   1
    20     3    19   1
    21     4    20   1
    22     5    21   1
    23     7    22   1
    24     7    23   1
    25    12    24   1
    26    12    25   1
    27    13    26   1
    28    14    27   1
    29    14    28   1
    30    14    29   1
    31    15    30   1
    32    15    31   1
    33    16    32   1
    34    16    33   1
    35    17    34   1
    36    18    35   1
    37    18    36   1
    38    18    37   1
@<TRIPOS>SUBSTRUCTURE
     1  SX3      2

