@<TRIPOS>MOLECULE
3cj2_ligand_075
    37    38
SMALL
GAST_HUCK
****
This file was generated by PARSER (from files_GN.cpp)

@<TRIPOS>ATOM
      1 BR1       -26.1924    4.4555  -21.7294 Br          1 SX3      -0.0605
      2 C11       -24.9231    4.7488  -20.4015 C.ar        1 SX3       0.0047
      3 C10       -25.3207    5.1790  -19.1224 C.ar        1 SX3      -0.0437
      4 C12       -23.5628    4.5223  -20.6731 C.ar        1 SX3      -0.0597
      5 C13       -22.6034    4.7239  -19.6666 C.ar        1 SX3      -0.0356
      6 C14       -22.9923    5.1370  -18.3763 C.ar        1 SX3       0.0599
      7 N2        -22.0277    5.2848  -17.4467 N.pl3       1 SX3      -0.3308
      8 C9        -24.3637    5.3812  -18.0985 C.ar        1 SX3       0.0698
      9 C8        -24.7928    5.8037  -16.8474 C.2         1 SX3       0.1999
     10 O1        -24.9942    4.8875  -16.0578 O.2         1 SX3      -0.3919
     11 N1        -24.9577    7.0908  -16.4805 N.am        1 SX3      -0.2741
     12 C6        -24.6018    8.2280  -17.3190 C.3         1 SX3       0.0356
     13 C4        -23.5171    9.1308  -16.6511 C.3         1 SX3      -0.0232
     14 C5        -22.0776    8.5627  -16.7939 C.3         1 SX3      -0.0606
     15 C3        -23.8989    9.4603  -15.1728 C.3         1 SX3      -0.0442
     16 C7        -25.5006    7.4590  -15.1808 C.3         1 SX3       0.0356
     17 C2        -24.4606    8.2602  -14.3445 C.3         1 SX3      -0.0232
     18 C1        -23.3833    7.3177  -13.7391 C.3         1 SX3      -0.0606
     19 H1        -26.3154    5.3418  -18.9431 H           1 SX3       0.0663
     20 H2        -23.2719    4.2087  -21.6005 H           1 SX3       0.0644
     21 H3        -21.6176    4.5515  -19.8786 H           1 SX3       0.0535
     22 H4        -21.1003    5.1214  -17.6811 H           1 SX3       0.1755
     23 H5        -22.2558    5.5202  -16.5321 H           1 SX3       0.1755
     24 H6        -25.5040    8.8276  -17.4811 H           1 SX3       0.0524
     25 H7        -24.2497    7.9498  -18.3143 H           1 SX3       0.0524
     26 H8        -23.5103   10.0808  -17.1987 H           1 SX3       0.0318
     27 H9        -21.3598    9.2503  -16.3392 H           1 SX3       0.0233
     28 H10       -21.8165    8.4488  -17.8493 H           1 SX3       0.0233
     29 H11       -21.9790    7.5938  -16.3125 H           1 SX3       0.0233
     30 H12       -24.6760   10.2322  -15.2013 H           1 SX3       0.0272
     31 H13       -23.0462    9.9061  -14.6530 H           1 SX3       0.0272
     32 H14       -25.8423    6.6045  -14.5908 H           1 SX3       0.0524
     33 H15       -26.3889    8.0796  -15.3348 H           1 SX3       0.0524
     34 H16       -24.9909    8.6943  -13.4902 H           1 SX3       0.0318
     35 H17       -22.5770    7.8926  -13.2820 H           1 SX3       0.0233
     36 H18       -22.9586    6.6525  -14.4896 H           1 SX3       0.0233
     37 H19       -23.8395    6.6959  -12.9657 H           1 SX3       0.0233
@<TRIPOS>BOND
     1     1     2   1
     2     2     3  ar
     3     2     4  ar
     4     3     8  ar
     5     4     5  ar
     6     5     6  ar
     7     6     7   1
     8     6     8  ar
     9     8     9   1
    10     9    10   2
    11     9    11  am
    12    11    12   1
    13    11    16   1
    14    12    13   1
    15    13    14   1
    16    13    15   1
    17    15    17   1
    18    16    17   1
    19    17    18   1
    20     3    19   1
    21     4    20   1
    22     5    21   1
    23     7    22   1
    24     7    23   1
    25    12    24   1
    26    12    25   1
    27    13    26   1
    28    14    27   1
    29    14    28   1
    30    14    29   1
    31    15    30   1
    32    15    31   1
    33    16    32   1
    34    16    33   1
    35    17    34   1
    36    18    35   1
    37    18    36   1
    38    18    37   1
@<TRIPOS>SUBSTRUCTURE
     1  SX3      2

