@<TRIPOS>MOLECULE
3cj2_ligand_028
    37    38
SMALL
GAST_HUCK
****
This file was generated by PARSER (from files_GN.cpp)

@<TRIPOS>ATOM
      1 BR1       -26.9526    9.6653  -11.8003 Br          1 SX3      -0.0605
      2 C11       -26.0911   10.2940  -13.3250 C.ar        1 SX3       0.0047
      3 C10       -25.3621    9.4081  -14.1393 C.ar        1 SX3      -0.0437
      4 C12       -26.1659   11.6571  -13.6600 C.ar        1 SX3      -0.0597
      5 C13       -25.5004   12.1377  -14.8009 C.ar        1 SX3      -0.0356
      6 C14       -24.7568   11.2581  -15.6171 C.ar        1 SX3       0.0599
      7 N2        -24.1364   11.7745  -16.6955 N.pl3       1 SX3      -0.3308
      8 C9        -24.6845    9.8779  -15.2899 C.ar        1 SX3       0.0698
      9 C8        -24.0058    8.9710  -16.0946 C.2         1 SX3       0.1999
     10 O1        -24.7492    8.2780  -16.7787 O.2         1 SX3      -0.3919
     11 N1        -22.6658    8.8508  -16.1805 N.am        1 SX3      -0.2741
     12 C6        -21.7428    9.5152  -15.2699 C.3         1 SX3       0.0356
     13 C4        -20.8761    8.4736  -14.4975 C.3         1 SX3      -0.0232
     14 C5        -19.8465    9.1581  -13.5580 C.3         1 SX3      -0.0606
     15 C3        -20.1794    7.4971  -15.4920 C.3         1 SX3      -0.0442
     16 C7        -22.0293    7.9977  -17.1758 C.3         1 SX3       0.0356
     17 C2        -21.1954    6.8735  -16.4939 C.3         1 SX3      -0.0232
     18 C1        -20.4939    5.9668  -17.5416 C.3         1 SX3      -0.0606
     19 H1        -25.3216    8.4179  -13.8810 H           1 SX3       0.0663
     20 H2        -26.6991   12.3020  -13.0733 H           1 SX3       0.0644
     21 H3        -25.5540   13.1351  -15.0261 H           1 SX3       0.0535
     22 H4        -24.2327   12.7158  -16.9098 H           1 SX3       0.1755
     23 H5        -23.5727   11.2153  -17.2488 H           1 SX3       0.1755
     24 H6        -22.2476   10.1327  -14.5247 H           1 SX3       0.0524
     25 H7        -21.0931   10.1840  -15.8423 H           1 SX3       0.0524
     26 H8        -21.5514    7.8852  -13.8671 H           1 SX3       0.0318
     27 H9        -19.2836    8.4054  -12.9986 H           1 SX3       0.0233
     28 H10       -20.3576    9.8038  -12.8396 H           1 SX3       0.0233
     29 H11       -19.1436    9.7659  -14.1316 H           1 SX3       0.0233
     30 H12       -19.6959    6.6952  -14.9253 H           1 SX3       0.0272
     31 H13       -19.4017    8.0332  -16.0456 H           1 SX3       0.0272
     32 H14       -21.3716    8.6137  -17.7978 H           1 SX3       0.0524
     33 H15       -22.7419    7.5291  -17.8592 H           1 SX3       0.0524
     34 H16       -21.8847    6.2382  -15.9261 H           1 SX3       0.0318
     35 H17       -19.9154    5.1857  -17.0455 H           1 SX3       0.0233
     36 H18       -19.8192    6.5510  -18.1702 H           1 SX3       0.0233
     37 H19       -21.2355    5.4854  -18.1818 H           1 SX3       0.0233
@<TRIPOS>BOND
     1     1     2   1
     2     2     3  ar
     3     2     4  ar
     4     3     8  ar
     5     4     5  ar
     6     5     6  ar
     7     6     7   1
     8     6     8  ar
     9     8     9   1
    10     9    10   2
    11     9    11  am
    12    11    12   1
    13    11    16   1
    14    12    13   1
    15    13    14   1
    16    13    15   1
    17    15    17   1
    18    16    17   1
    19    17    18   1
    20     3    19   1
    21     4    20   1
    22     5    21   1
    23     7    22   1
    24     7    23   1
    25    12    24   1
    26    12    25   1
    27    13    26   1
    28    14    27   1
    29    14    28   1
    30    14    29   1
    31    15    30   1
    32    15    31   1
    33    16    32   1
    34    16    33   1
    35    17    34   1
    36    18    35   1
    37    18    36   1
    38    18    37   1
@<TRIPOS>SUBSTRUCTURE
     1  SX3      2

