@<TRIPOS>MOLECULE
3cj2_ligand_083
    37    38
SMALL
GAST_HUCK
****
This file was generated by PARSER (from files_GN.cpp)

@<TRIPOS>ATOM
      1 BR1       -28.9271   13.8265  -15.9040 Br          1 SX3      -0.0605
      2 C11       -28.7646   13.8430  -14.0528 C.ar        1 SX3       0.0047
      3 C10       -29.1464   14.9816  -13.3227 C.ar        1 SX3      -0.0437
      4 C12       -28.2676   12.7133  -13.3812 C.ar        1 SX3      -0.0597
      5 C13       -28.1531   12.7216  -11.9800 C.ar        1 SX3      -0.0356
      6 C14       -28.5249   13.8638  -11.2403 C.ar        1 SX3       0.0599
      7 N2        -28.4013   13.8082   -9.8972 N.pl3       1 SX3      -0.3308
      8 C9        -29.0410   15.0059  -11.9106 C.ar        1 SX3       0.0698
      9 C8        -29.4549   16.1436  -11.2214 C.2         1 SX3       0.1999
     10 O1        -28.5345   16.7840  -10.7250 O.2         1 SX3      -0.3919
     11 N1        -30.7378   16.5118  -11.0323 N.am        1 SX3      -0.2741
     12 C6        -31.1046   17.6533  -10.2042 C.3         1 SX3       0.0356
     13 C4        -31.9913   17.2328   -8.9890 C.3         1 SX3      -0.0232
     14 C5        -31.1497   16.6308   -7.8315 C.3         1 SX3      -0.0606
     15 C3        -33.1715   16.3213   -9.4577 C.3         1 SX3      -0.0442
     16 C7        -31.8763   15.7967  -11.5973 C.3         1 SX3       0.0356
     17 C2        -32.7928   15.2092  -10.4855 C.3         1 SX3      -0.0232
     18 C1        -32.1867   13.9227   -9.8528 C.3         1 SX3      -0.0606
     19 H1        -29.5269   15.7869  -13.8274 H           1 SX3       0.0663
     20 H2        -27.9836   11.8846  -13.9113 H           1 SX3       0.0644
     21 H3        -27.7958   11.8872  -11.5056 H           1 SX3       0.0535
     22 H4        -28.0622   13.0051   -9.4709 H           1 SX3       0.1755
     23 H5        -28.6653   14.5644   -9.3506 H           1 SX3       0.1755
     24 H6        -31.6693   18.3579  -10.8208 H           1 SX3       0.0524
     25 H7        -30.2443   18.2166   -9.8373 H           1 SX3       0.0524
     26 H8        -32.4419   18.1430   -8.5811 H           1 SX3       0.0318
     27 H9        -31.7983   16.2985   -7.0195 H           1 SX3       0.0233
     28 H10       -30.4690   17.3857   -7.4324 H           1 SX3       0.0233
     29 H11       -30.5536   15.7895   -8.1731 H           1 SX3       0.0233
     30 H12       -33.9080   16.9673   -9.9460 H           1 SX3       0.0272
     31 H13       -33.6744   15.8760   -8.5961 H           1 SX3       0.0272
     32 H14       -31.6184   14.9723  -12.2669 H           1 SX3       0.0524
     33 H15       -32.4577   16.5019  -12.2045 H           1 SX3       0.0524
     34 H16       -33.7263   14.8878  -10.9705 H           1 SX3       0.0318
     35 H17       -32.7754   13.6031   -8.9903 H           1 SX3       0.0233
     36 H18       -31.1594   14.0784   -9.5350 H           1 SX3       0.0233
     37 H19       -32.1888   13.1106  -10.5853 H           1 SX3       0.0233
@<TRIPOS>BOND
     1     1     2   1
     2     2     3  ar
     3     2     4  ar
     4     3     8  ar
     5     4     5  ar
     6     5     6  ar
     7     6     7   1
     8     6     8  ar
     9     8     9   1
    10     9    10   2
    11     9    11  am
    12    11    12   1
    13    11    16   1
    14    12    13   1
    15    13    14   1
    16    13    15   1
    17    15    17   1
    18    16    17   1
    19    17    18   1
    20     3    19   1
    21     4    20   1
    22     5    21   1
    23     7    22   1
    24     7    23   1
    25    12    24   1
    26    12    25   1
    27    13    26   1
    28    14    27   1
    29    14    28   1
    30    14    29   1
    31    15    30   1
    32    15    31   1
    33    16    32   1
    34    16    33   1
    35    17    34   1
    36    18    35   1
    37    18    36   1
    38    18    37   1
@<TRIPOS>SUBSTRUCTURE
     1  SX3      2

