@<TRIPOS>MOLECULE
3cj2_ligand_067
    37    38
SMALL
GAST_HUCK
****
This file was generated by PARSER (from files_GN.cpp)

@<TRIPOS>ATOM
      1 BR1       -24.4507    4.7735  -23.4572 Br          1 SX3      -0.0605
      2 C11       -24.4066    4.6644  -21.5988 C.ar        1 SX3       0.0047
      3 C10       -23.9542    5.7554  -20.8320 C.ar        1 SX3      -0.0437
      4 C12       -24.8426    3.4903  -20.9625 C.ar        1 SX3      -0.0597
      5 C13       -24.8337    3.4040  -19.5606 C.ar        1 SX3      -0.0356
      6 C14       -24.3869    4.4940  -18.7815 C.ar        1 SX3       0.0599
      7 N2        -24.4004    4.3542  -17.4394 N.pl3       1 SX3      -0.3308
      8 C9        -23.9419    5.6842  -19.4198 C.ar        1 SX3       0.0698
      9 C8        -23.4917    6.7776  -18.6909 C.2         1 SX3       0.1999
     10 O1        -24.4003    7.4914  -18.2804 O.2         1 SX3      -0.3919
     11 N1        -22.2024    7.0292  -18.3826 N.am        1 SX3      -0.2741
     12 C6        -21.8203    8.1454  -17.5298 C.3         1 SX3       0.0356
     13 C4        -21.1187    7.6319  -16.2381 C.3         1 SX3      -0.0232
     14 C5        -20.6640    8.8024  -15.3253 C.3         1 SX3      -0.0606
     15 C3        -19.9216    6.7053  -16.6045 C.3         1 SX3      -0.0442
     16 C7        -21.0918    6.2042  -18.8334 C.3         1 SX3       0.0356
     17 C2        -20.3227    5.5940  -17.6214 C.3         1 SX3      -0.0232
     18 C1        -19.0861    4.7798  -18.0897 C.3         1 SX3      -0.0606
     19 H1        -23.6397    6.6053  -21.3121 H           1 SX3       0.0663
     20 H2        -25.1745    2.7005  -21.5168 H           1 SX3       0.0644
     21 H3        -25.1552    2.5458  -19.1112 H           1 SX3       0.0535
     22 H4        -24.7101    3.5241  -17.0467 H           1 SX3       0.1755
     23 H5        -24.0978    5.0754  -16.8657 H           1 SX3       0.1755
     24 H6        -22.6636    8.7715  -17.2298 H           1 SX3       0.0524
     25 H7        -21.1384    8.7979  -18.0836 H           1 SX3       0.0524
     26 H8        -21.8439    7.0385  -15.6751 H           1 SX3       0.0318
     27 H9        -20.2085    8.4165  -14.4112 H           1 SX3       0.0233
     28 H10       -21.5206    9.4193  -15.0447 H           1 SX3       0.0233
     29 H11       -19.9341    9.4345  -15.8378 H           1 SX3       0.0233
     30 H12       -19.5415    6.2409  -15.6925 H           1 SX3       0.0272
     31 H13       -19.1116    7.3049  -17.0259 H           1 SX3       0.0272
     32 H14       -20.4129    6.8271  -19.4215 H           1 SX3       0.0524
     33 H15       -21.3944    5.3827  -19.4859 H           1 SX3       0.0524
     34 H16       -21.0004    4.9010  -17.1143 H           1 SX3       0.0318
     35 H17       -18.5737    4.3383  -17.2341 H           1 SX3       0.0233
     36 H18       -18.3808    5.4207  -18.6240 H           1 SX3       0.0233
     37 H19       -19.3946    3.9697  -18.7551 H           1 SX3       0.0233
@<TRIPOS>BOND
     1     1     2   1
     2     2     3  ar
     3     2     4  ar
     4     3     8  ar
     5     4     5  ar
     6     5     6  ar
     7     6     7   1
     8     6     8  ar
     9     8     9   1
    10     9    10   2
    11     9    11  am
    12    11    12   1
    13    11    16   1
    14    12    13   1
    15    13    14   1
    16    13    15   1
    17    15    17   1
    18    16    17   1
    19    17    18   1
    20     3    19   1
    21     4    20   1
    22     5    21   1
    23     7    22   1
    24     7    23   1
    25    12    24   1
    26    12    25   1
    27    13    26   1
    28    14    27   1
    29    14    28   1
    30    14    29   1
    31    15    30   1
    32    15    31   1
    33    16    32   1
    34    16    33   1
    35    17    34   1
    36    18    35   1
    37    18    36   1
    38    18    37   1
@<TRIPOS>SUBSTRUCTURE
     1  SX3      2

