@<TRIPOS>MOLECULE
3cj2_ligand_022
    37    38
SMALL
GAST_HUCK
****
This file was generated by PARSER (from files_GN.cpp)

@<TRIPOS>ATOM
      1 BR1       -28.5886    1.5740  -16.8879 Br          1 SX3      -0.0605
      2 C11       -28.1250    2.6033  -15.4094 C.ar        1 SX3       0.0047
      3 C10       -27.3513    3.7644  -15.5674 C.ar        1 SX3      -0.0437
      4 C12       -28.5578    2.2177  -14.1281 C.ar        1 SX3      -0.0597
      5 C13       -28.2095    2.9884  -13.0100 C.ar        1 SX3      -0.0356
      6 C14       -27.4319    4.1574  -13.1565 C.ar        1 SX3       0.0599
      7 N2        -27.0897    4.8199  -12.0323 N.pl3       1 SX3      -0.3308
      8 C9        -27.0032    4.5676  -14.4479 C.ar        1 SX3       0.0698
      9 C8        -26.2229    5.7021  -14.6582 C.2         1 SX3       0.1999
     10 O1        -25.0817    5.4447  -15.0268 O.2         1 SX3      -0.3919
     11 N1        -26.6444    6.9838  -14.5645 N.am        1 SX3      -0.2741
     12 C6        -27.9909    7.3631  -14.1565 C.3         1 SX3       0.0356
     13 C4        -27.9448    8.2943  -12.9067 C.3         1 SX3      -0.0232
     14 C5        -29.3645    8.7133  -12.4383 C.3         1 SX3      -0.0606
     15 C3        -27.0403    9.5289  -13.1872 C.3         1 SX3      -0.0442
     16 C7        -25.7799    8.1075  -14.9002 C.3         1 SX3       0.0356
     17 C2        -25.6343    9.0946  -13.7022 C.3         1 SX3      -0.0232
     18 C1        -24.7593   10.3243  -14.0665 C.3         1 SX3      -0.0606
     19 H1        -27.0484    4.0276  -16.5086 H           1 SX3       0.0663
     20 H2        -29.1190    1.3717  -14.0112 H           1 SX3       0.0644
     21 H3        -28.5256    2.6899  -12.0818 H           1 SX3       0.0535
     22 H4        -27.3283    4.4521  -11.1636 H           1 SX3       0.1755
     23 H5        -26.5580    5.6241  -12.0760 H           1 SX3       0.1755
     24 H6        -28.6319    6.5112  -13.9192 H           1 SX3       0.0524
     25 H7        -28.4744    7.8917  -14.9860 H           1 SX3       0.0524
     26 H8        -27.4886    7.7297  -12.0877 H           1 SX3       0.0318
     27 H9        -29.2986    9.3387  -11.5466 H           1 SX3       0.0233
     28 H10       -29.9532    7.8285  -12.1891 H           1 SX3       0.0233
     29 H11       -29.8811    9.2689  -13.2217 H           1 SX3       0.0233
     30 H12       -26.9217   10.1093  -12.2684 H           1 SX3       0.0272
     31 H13       -27.5211   10.1706  -13.9318 H           1 SX3       0.0272
     32 H14       -26.2142    8.6372  -15.7557 H           1 SX3       0.0524
     33 H15       -24.7754    7.8053  -15.2117 H           1 SX3       0.0524
     34 H16       -25.1261    8.5610  -12.8924 H           1 SX3       0.0318
     35 H17       -24.6556   10.9814  -13.2001 H           1 SX3       0.0233
     36 H18       -25.2071   10.8926  -14.8839 H           1 SX3       0.0233
     37 H19       -23.7617   10.0019  -14.3706 H           1 SX3       0.0233
@<TRIPOS>BOND
     1     1     2   1
     2     2     3  ar
     3     2     4  ar
     4     3     8  ar
     5     4     5  ar
     6     5     6  ar
     7     6     7   1
     8     6     8  ar
     9     8     9   1
    10     9    10   2
    11     9    11  am
    12    11    12   1
    13    11    16   1
    14    12    13   1
    15    13    14   1
    16    13    15   1
    17    15    17   1
    18    16    17   1
    19    17    18   1
    20     3    19   1
    21     4    20   1
    22     5    21   1
    23     7    22   1
    24     7    23   1
    25    12    24   1
    26    12    25   1
    27    13    26   1
    28    14    27   1
    29    14    28   1
    30    14    29   1
    31    15    30   1
    32    15    31   1
    33    16    32   1
    34    16    33   1
    35    17    34   1
    36    18    35   1
    37    18    36   1
    38    18    37   1
@<TRIPOS>SUBSTRUCTURE
     1  SX3      2

