@<TRIPOS>MOLECULE
3cj2_ligand_030
    37    38
SMALL
GAST_HUCK
****
This file was generated by PARSER (from files_GN.cpp)

@<TRIPOS>ATOM
      1 BR1       -23.3352    1.3158  -19.6827 Br          1 SX3      -0.0605
      2 C11       -23.5625    3.0416  -20.3396 C.ar        1 SX3       0.0047
      3 C10       -23.4103    4.1504  -19.4874 C.ar        1 SX3      -0.0437
      4 C12       -23.8894    3.2369  -21.6917 C.ar        1 SX3      -0.0597
      5 C13       -24.0617    4.5380  -22.1936 C.ar        1 SX3      -0.0356
      6 C14       -23.9069    5.6564  -21.3485 C.ar        1 SX3       0.0599
      7 N2        -24.0462    6.8824  -21.8907 N.pl3       1 SX3      -0.3308
      8 C9        -23.5754    5.4681  -19.9802 C.ar        1 SX3       0.0698
      9 C8        -23.3953    6.5415  -19.1142 C.2         1 SX3       0.1999
     10 O1        -24.4241    7.1662  -18.8818 O.2         1 SX3      -0.3919
     11 N1        -22.2226    6.8907  -18.5461 N.am        1 SX3      -0.2741
     12 C6        -22.1272    7.9596  -17.5595 C.3         1 SX3       0.0356
     13 C4        -21.5380    7.4197  -16.2220 C.3         1 SX3      -0.0232
     14 C5        -21.3870    8.5377  -15.1565 C.3         1 SX3      -0.0606
     15 C3        -20.1809    6.7022  -16.4845 C.3         1 SX3      -0.0442
     16 C7        -20.9530    6.2523  -18.8725 C.3         1 SX3       0.0356
     17 C2        -20.3088    5.6252  -17.6023 C.3         1 SX3      -0.0232
     18 C1        -18.9488    4.9558  -17.9305 C.3         1 SX3      -0.0606
     19 H1        -23.1663    3.9877  -18.5064 H           1 SX3       0.0663
     20 H2        -24.0000    2.4336  -22.3132 H           1 SX3       0.0644
     21 H3        -24.2880    4.6655  -23.1835 H           1 SX3       0.0535
     22 H4        -24.2492    6.9769  -22.8347 H           1 SX3       0.1755
     23 H5        -23.9285    7.6758  -21.3462 H           1 SX3       0.1755
     24 H6        -23.0892    8.4289  -17.3370 H           1 SX3       0.0524
     25 H7        -21.4803    8.7496  -17.9552 H           1 SX3       0.0524
     26 H8        -22.2419    6.6804  -15.8230 H           1 SX3       0.0318
     27 H9        -20.9944    8.1200  -14.2270 H           1 SX3       0.0233
     28 H10       -22.3560    8.9930  -14.9417 H           1 SX3       0.0233
     29 H11       -20.7046    9.3152  -15.5068 H           1 SX3       0.0233
     30 H12       -19.8416    6.2314  -15.5592 H           1 SX3       0.0272
     31 H13       -19.4317    7.4426  -16.7750 H           1 SX3       0.0272
     32 H14       -20.2801    7.0037  -19.2908 H           1 SX3       0.0524
     33 H15       -21.0335    5.4743  -19.6334 H           1 SX3       0.0524
     34 H16       -20.9792    4.8400  -17.2399 H           1 SX3       0.0318
     35 H17       -18.5236    4.5007  -17.0363 H           1 SX3       0.0233
     36 H18       -18.2412    5.6899  -18.3196 H           1 SX3       0.0233
     37 H19       -19.0836    4.1703  -18.6762 H           1 SX3       0.0233
@<TRIPOS>BOND
     1     1     2   1
     2     2     3  ar
     3     2     4  ar
     4     3     8  ar
     5     4     5  ar
     6     5     6  ar
     7     6     7   1
     8     6     8  ar
     9     8     9   1
    10     9    10   2
    11     9    11  am
    12    11    12   1
    13    11    16   1
    14    12    13   1
    15    13    14   1
    16    13    15   1
    17    15    17   1
    18    16    17   1
    19    17    18   1
    20     3    19   1
    21     4    20   1
    22     5    21   1
    23     7    22   1
    24     7    23   1
    25    12    24   1
    26    12    25   1
    27    13    26   1
    28    14    27   1
    29    14    28   1
    30    14    29   1
    31    15    30   1
    32    15    31   1
    33    16    32   1
    34    16    33   1
    35    17    34   1
    36    18    35   1
    37    18    36   1
    38    18    37   1
@<TRIPOS>SUBSTRUCTURE
     1  SX3      2

