@<TRIPOS>MOLECULE
3cj2_ligand_089
    37    38
SMALL
GAST_HUCK
****
This file was generated by PARSER (from files_GN.cpp)

@<TRIPOS>ATOM
      1 BR1       -24.5374   -2.3669  -21.5126 Br          1 SX3      -0.0605
      2 C11       -23.2141   -1.2287  -20.8681 C.ar        1 SX3       0.0047
      3 C10       -23.3999    0.1678  -20.9105 C.ar        1 SX3      -0.0437
      4 C12       -22.0417   -1.7568  -20.3083 C.ar        1 SX3      -0.0597
      5 C13       -21.0468   -0.8981  -19.8119 C.ar        1 SX3      -0.0356
      6 C14       -21.2365    0.4962  -19.8253 C.ar        1 SX3       0.0599
      7 N2        -20.2560    1.2707  -19.3240 N.pl3       1 SX3      -0.3308
      8 C9        -22.4352    1.0447  -20.3562 C.ar        1 SX3       0.0698
      9 C8        -22.6664    2.4180  -20.3694 C.2         1 SX3       0.1999
     10 O1        -21.8889    3.0358  -21.0902 O.2         1 SX3      -0.3919
     11 N1        -23.6109    3.0787  -19.6602 N.am        1 SX3      -0.2741
     12 C6        -24.5783    2.4332  -18.7811 C.3         1 SX3       0.0356
     13 C4        -26.0479    2.7312  -19.2149 C.3         1 SX3      -0.0232
     14 C5        -26.5147    1.8722  -20.4217 C.3         1 SX3      -0.0606
     15 C3        -26.2565    4.2645  -19.4347 C.3         1 SX3      -0.0442
     16 C7        -23.7229    4.5342  -19.6830 C.3         1 SX3       0.0356
     17 C2        -25.1131    4.9901  -20.2146 C.3         1 SX3      -0.0232
     18 C1        -25.1923    4.8750  -21.7629 C.3         1 SX3      -0.0606
     19 H1        -24.2511    0.5444  -21.3485 H           1 SX3       0.0663
     20 H2        -21.9043   -2.7736  -20.2714 H           1 SX3       0.0644
     21 H3        -20.1942   -1.3061  -19.4260 H           1 SX3       0.0535
     22 H4        -19.4532    0.8662  -18.9558 H           1 SX3       0.1755
     23 H5        -20.3593    2.2341  -19.3226 H           1 SX3       0.1755
     24 H6        -24.4324    2.8270  -17.7680 H           1 SX3       0.0524
     25 H7        -24.4444    1.3530  -18.6929 H           1 SX3       0.0524
     26 H8        -26.6920    2.4366  -18.3792 H           1 SX3       0.0318
     27 H9        -27.5570    2.1061  -20.6553 H           1 SX3       0.0233
     28 H10       -26.4503    0.8079  -20.1800 H           1 SX3       0.0233
     29 H11       -25.9084    2.0602  -21.3058 H           1 SX3       0.0233
     30 H12       -26.3220    4.7293  -18.4441 H           1 SX3       0.0272
     31 H13       -27.2183    4.4510  -19.9203 H           1 SX3       0.0272
     32 H14       -22.9444    5.0238  -20.2734 H           1 SX3       0.0524
     33 H15       -23.5944    4.9085  -18.6618 H           1 SX3       0.0524
     34 H16       -25.2128    6.0566  -19.9915 H           1 SX3       0.0318
     35 H17       -26.2110    5.0496  -22.1123 H           1 SX3       0.0233
     36 H18       -24.8601    3.8986  -22.1122 H           1 SX3       0.0233
     37 H19       -24.5442    5.6267  -22.2190 H           1 SX3       0.0233
@<TRIPOS>BOND
     1     1     2   1
     2     2     3  ar
     3     2     4  ar
     4     3     8  ar
     5     4     5  ar
     6     5     6  ar
     7     6     7   1
     8     6     8  ar
     9     8     9   1
    10     9    10   2
    11     9    11  am
    12    11    12   1
    13    11    16   1
    14    12    13   1
    15    13    14   1
    16    13    15   1
    17    15    17   1
    18    16    17   1
    19    17    18   1
    20     3    19   1
    21     4    20   1
    22     5    21   1
    23     7    22   1
    24     7    23   1
    25    12    24   1
    26    12    25   1
    27    13    26   1
    28    14    27   1
    29    14    28   1
    30    14    29   1
    31    15    30   1
    32    15    31   1
    33    16    32   1
    34    16    33   1
    35    17    34   1
    36    18    35   1
    37    18    36   1
    38    18    37   1
@<TRIPOS>SUBSTRUCTURE
     1  SX3      2

