@<TRIPOS>MOLECULE
3cj2_ligand_015
    37    38
SMALL
GAST_HUCK
****
This file was generated by PARSER (from files_GN.cpp)

@<TRIPOS>ATOM
      1 BR1       -24.9807   10.6354  -16.0042 Br          1 SX3      -0.0605
      2 C11       -23.7542    9.2973  -16.4123 C.ar        1 SX3       0.0047
      3 C10       -24.1740    7.9557  -16.4723 C.ar        1 SX3      -0.0437
      4 C12       -22.4139    9.6230  -16.6708 C.ar        1 SX3      -0.0597
      5 C13       -21.4943    8.6094  -16.9883 C.ar        1 SX3      -0.0356
      6 C14       -21.9050    7.2602  -17.0518 C.ar        1 SX3       0.0599
      7 N2        -20.9756    6.3305  -17.3527 N.pl3       1 SX3      -0.3308
      8 C9        -23.2635    6.9214  -16.8025 C.ar        1 SX3       0.0698
      9 C8        -23.7525    5.6210  -16.8949 C.2         1 SX3       0.1999
     10 O1        -24.1443    5.1666  -15.8268 O.2         1 SX3      -0.3919
     11 N1        -23.8862    4.9130  -18.0341 N.am        1 SX3      -0.2741
     12 C6        -24.4723    3.5752  -18.0497 C.3         1 SX3       0.0356
     13 C4        -25.7722    3.5436  -18.9102 C.3         1 SX3      -0.0232
     14 C5        -26.3911    2.1211  -18.9643 C.3         1 SX3      -0.0606
     15 C3        -25.4894    4.1031  -20.3361 C.3         1 SX3      -0.0442
     16 C7        -23.5463    5.4319  -19.3529 C.3         1 SX3       0.0356
     17 C2        -24.7990    5.4972  -20.2771 C.3         1 SX3      -0.0232
     18 C1        -24.4496    6.0286  -21.6925 C.3         1 SX3      -0.0606
     19 H1        -25.1595    7.7430  -16.2831 H           1 SX3       0.0663
     20 H2        -22.1079   10.5962  -16.6283 H           1 SX3       0.0644
     21 H3        -20.5180    8.8603  -17.1602 H           1 SX3       0.0535
     22 H4        -20.0560    6.5979  -17.5127 H           1 SX3       0.1755
     23 H5        -21.2143    5.3913  -17.3979 H           1 SX3       0.1755
     24 H6        -24.7127    3.1946  -17.0523 H           1 SX3       0.0524
     25 H7        -23.7413    2.8799  -18.4670 H           1 SX3       0.0524
     26 H8        -26.5075    4.2019  -18.4286 H           1 SX3       0.0318
     27 H9        -27.3141    2.1332  -19.5499 H           1 SX3       0.0233
     28 H10       -26.6285    1.7762  -17.9568 H           1 SX3       0.0233
     29 H11       -25.6948    1.4145  -19.4231 H           1 SX3       0.0233
     30 H12       -26.4320    4.1954  -20.8822 H           1 SX3       0.0272
     31 H13       -24.8479    3.4068  -20.8820 H           1 SX3       0.0272
     32 H14       -22.7908    4.7775  -19.7960 H           1 SX3       0.0524
     33 H15       -23.1097    6.4292  -19.3324 H           1 SX3       0.0524
     34 H16       -25.5017    6.2068  -19.8282 H           1 SX3       0.0318
     35 H17       -25.3516    6.0956  -22.2998 H           1 SX3       0.0233
     36 H18       -23.7376    5.3602  -22.1865 H           1 SX3       0.0233
     37 H19       -24.0041    7.0251  -21.6244 H           1 SX3       0.0233
@<TRIPOS>BOND
     1     1     2   1
     2     2     3  ar
     3     2     4  ar
     4     3     8  ar
     5     4     5  ar
     6     5     6  ar
     7     6     7   1
     8     6     8  ar
     9     8     9   1
    10     9    10   2
    11     9    11  am
    12    11    12   1
    13    11    16   1
    14    12    13   1
    15    13    14   1
    16    13    15   1
    17    15    17   1
    18    16    17   1
    19    17    18   1
    20     3    19   1
    21     4    20   1
    22     5    21   1
    23     7    22   1
    24     7    23   1
    25    12    24   1
    26    12    25   1
    27    13    26   1
    28    14    27   1
    29    14    28   1
    30    14    29   1
    31    15    30   1
    32    15    31   1
    33    16    32   1
    34    16    33   1
    35    17    34   1
    36    18    35   1
    37    18    36   1
    38    18    37   1
@<TRIPOS>SUBSTRUCTURE
     1  SX3      2

