@<TRIPOS>MOLECULE
3cj2_ligand_052
    37    38
SMALL
GAST_HUCK
****
This file was generated by PARSER (from files_GN.cpp)

@<TRIPOS>ATOM
      1 BR1       -26.8081    7.7048  -18.9611 Br          1 SX3      -0.0605
      2 C11       -26.3656    8.8861  -17.5939 C.ar        1 SX3       0.0047
      3 C10       -25.0151    9.1641  -17.3171 C.ar        1 SX3      -0.0437
      4 C12       -27.3788    9.5028  -16.8397 C.ar        1 SX3      -0.0597
      5 C13       -27.0423   10.4037  -15.8141 C.ar        1 SX3      -0.0356
      6 C14       -25.6915   10.6886  -15.5269 C.ar        1 SX3       0.0599
      7 N2        -25.4249   11.5449  -14.5186 N.pl3       1 SX3      -0.3308
      8 C9        -24.6634   10.0614  -16.2819 C.ar        1 SX3       0.0698
      9 C8        -23.3218   10.3256  -16.0415 C.2         1 SX3       0.1999
     10 O1        -22.9704   11.4270  -16.4458 O.2         1 SX3      -0.3919
     11 N1        -22.4737    9.5179  -15.3724 N.am        1 SX3      -0.2741
     12 C6        -22.8241    8.1791  -14.9209 C.3         1 SX3       0.0356
     13 C4        -21.8634    7.1477  -15.5811 C.3         1 SX3      -0.0232
     14 C5        -22.2010    5.6957  -15.1755 C.3         1 SX3      -0.0606
     15 C3        -20.3853    7.4870  -15.2300 C.3         1 SX3      -0.0442
     16 C7        -21.1183    9.9304  -15.0304 C.3         1 SX3       0.0356
     17 C2        -20.0418    8.9577  -15.5973 C.3         1 SX3      -0.0232
     18 C1        -18.6195    9.3428  -15.1074 C.3         1 SX3      -0.0606
     19 H1        -24.2894    8.6964  -17.8675 H           1 SX3       0.0663
     20 H2        -28.3608    9.2998  -17.0368 H           1 SX3       0.0644
     21 H3        -27.7898   10.8414  -15.2695 H           1 SX3       0.0535
     22 H4        -26.1522   11.9574  -14.0263 H           1 SX3       0.1755
     23 H5        -24.5081   11.7521  -14.2773 H           1 SX3       0.1755
     24 H6        -23.8512    7.8921  -15.1541 H           1 SX3       0.0524
     25 H7        -22.7362    8.1293  -13.8306 H           1 SX3       0.0524
     26 H8        -21.9857    7.2242  -16.6679 H           1 SX3       0.0318
     27 H9        -21.4974    5.0160  -15.6590 H           1 SX3       0.0233
     28 H10       -23.2107    5.4333  -15.4975 H           1 SX3       0.0233
     29 H11       -22.1288    5.5724  -14.0924 H           1 SX3       0.0233
     30 H12       -19.7166    6.8140  -15.7762 H           1 SX3       0.0272
     31 H13       -20.2216    7.3288  -14.1591 H           1 SX3       0.0272
     32 H14       -21.0402    9.9634  -13.9396 H           1 SX3       0.0524
     33 H15       -20.8738   10.9320  -15.3887 H           1 SX3       0.0524
     34 H16       -20.0537    9.0406  -16.6892 H           1 SX3       0.0318
     35 H17       -17.8694    8.7296  -15.6112 H           1 SX3       0.0233
     36 H18       -18.5282    9.1943  -14.0283 H           1 SX3       0.0233
     37 H19       -18.4115   10.3918  -15.3303 H           1 SX3       0.0233
@<TRIPOS>BOND
     1     1     2   1
     2     2     3  ar
     3     2     4  ar
     4     3     8  ar
     5     4     5  ar
     6     5     6  ar
     7     6     7   1
     8     6     8  ar
     9     8     9   1
    10     9    10   2
    11     9    11  am
    12    11    12   1
    13    11    16   1
    14    12    13   1
    15    13    14   1
    16    13    15   1
    17    15    17   1
    18    16    17   1
    19    17    18   1
    20     3    19   1
    21     4    20   1
    22     5    21   1
    23     7    22   1
    24     7    23   1
    25    12    24   1
    26    12    25   1
    27    13    26   1
    28    14    27   1
    29    14    28   1
    30    14    29   1
    31    15    30   1
    32    15    31   1
    33    16    32   1
    34    16    33   1
    35    17    34   1
    36    18    35   1
    37    18    36   1
    38    18    37   1
@<TRIPOS>SUBSTRUCTURE
     1  SX3      2

