@<TRIPOS>MOLECULE
3cj2_ligand_091
    37    38
SMALL
GAST_HUCK
****
This file was generated by PARSER (from files_GN.cpp)

@<TRIPOS>ATOM
      1 BR1       -24.5236    5.1441  -22.3926 Br          1 SX3      -0.0605
      2 C11       -24.7474    4.5857  -20.6324 C.ar        1 SX3       0.0047
      3 C10       -25.1804    5.4993  -19.6552 C.ar        1 SX3      -0.0437
      4 C12       -24.4798    3.2535  -20.2766 C.ar        1 SX3      -0.0597
      5 C13       -24.6640    2.8315  -18.9489 C.ar        1 SX3      -0.0356
      6 C14       -25.1184    3.7380  -17.9677 C.ar        1 SX3       0.0599
      7 N2        -25.3114    3.2695  -16.7202 N.pl3       1 SX3      -0.3308
      8 C9        -25.3547    5.0974  -18.3078 C.ar        1 SX3       0.0698
      9 C8        -25.7257    6.0561  -17.3661 C.2         1 SX3       0.1999
     10 O1        -26.8196    6.5643  -17.5839 O.2         1 SX3      -0.3919
     11 N1        -24.9537    6.4983  -16.3499 N.am        1 SX3      -0.2741
     12 C6        -25.3987    7.5528  -15.4460 C.3         1 SX3       0.0356
     13 C4        -24.4782    8.8104  -15.5229 C.3         1 SX3      -0.0232
     14 C5        -24.7855    9.6969  -16.7616 C.3         1 SX3      -0.0606
     15 C3        -22.9763    8.4001  -15.3941 C.3         1 SX3      -0.0442
     16 C7        -23.6021    6.0197  -16.0832 C.3         1 SX3       0.0356
     17 C2        -22.5483    7.1543  -16.2309 C.3         1 SX3      -0.0232
     18 C1        -22.2338    7.4486  -17.7248 C.3         1 SX3      -0.0606
     19 H1        -25.3565    6.4689  -19.9343 H           1 SX3       0.0663
     20 H2        -24.1584    2.5886  -20.9826 H           1 SX3       0.0644
     21 H3        -24.4701    1.8569  -18.7029 H           1 SX3       0.0535
     22 H4        -25.0662    2.3559  -16.5050 H           1 SX3       0.1755
     23 H5        -25.6491    3.8561  -16.0252 H           1 SX3       0.1755
     24 H6        -25.3778    7.1630  -14.4235 H           1 SX3       0.0524
     25 H7        -26.4321    7.8686  -15.6124 H           1 SX3       0.0524
     26 H8        -24.7104    9.4356  -14.6526 H           1 SX3       0.0318
     27 H9        -24.0795   10.5276  -16.8190 H           1 SX3       0.0233
     28 H10       -25.7911   10.1147  -16.6811 H           1 SX3       0.0233
     29 H11       -24.7334    9.1272  -17.6864 H           1 SX3       0.0233
     30 H12       -22.7957    8.1600  -14.3407 H           1 SX3       0.0272
     31 H13       -22.3290    9.2489  -15.6285 H           1 SX3       0.0272
     32 H14       -23.2859    5.1920  -16.7176 H           1 SX3       0.0524
     33 H15       -23.5662    5.6360  -15.0593 H           1 SX3       0.0524
     34 H16       -21.6117    6.7887  -15.7946 H           1 SX3       0.0318
     35 H17       -21.5903    8.3252  -17.8196 H           1 SX3       0.0233
     36 H18       -23.1424    7.6131  -18.3009 H           1 SX3       0.0233
     37 H19       -21.7126    6.5970  -18.1679 H           1 SX3       0.0233
@<TRIPOS>BOND
     1     1     2   1
     2     2     3  ar
     3     2     4  ar
     4     3     8  ar
     5     4     5  ar
     6     5     6  ar
     7     6     7   1
     8     6     8  ar
     9     8     9   1
    10     9    10   2
    11     9    11  am
    12    11    12   1
    13    11    16   1
    14    12    13   1
    15    13    14   1
    16    13    15   1
    17    15    17   1
    18    16    17   1
    19    17    18   1
    20     3    19   1
    21     4    20   1
    22     5    21   1
    23     7    22   1
    24     7    23   1
    25    12    24   1
    26    12    25   1
    27    13    26   1
    28    14    27   1
    29    14    28   1
    30    14    29   1
    31    15    30   1
    32    15    31   1
    33    16    32   1
    34    16    33   1
    35    17    34   1
    36    18    35   1
    37    18    36   1
    38    18    37   1
@<TRIPOS>SUBSTRUCTURE
     1  SX3      2

