@<TRIPOS>MOLECULE
3cj2_ligand_043
    37    38
SMALL
GAST_HUCK
****
This file was generated by PARSER (from files_GN.cpp)

@<TRIPOS>ATOM
      1 BR1       -22.3174    1.0160  -19.9777 Br          1 SX3      -0.0605
      2 C11       -22.5680    2.8509  -19.8167 C.ar        1 SX3       0.0047
      3 C10       -21.8158    3.5866  -18.8813 C.ar        1 SX3      -0.0437
      4 C12       -23.4816    3.5089  -20.6609 C.ar        1 SX3      -0.0597
      5 C13       -23.6408    4.9056  -20.5730 C.ar        1 SX3      -0.0356
      6 C14       -22.8872    5.6498  -19.6433 C.ar        1 SX3       0.0599
      7 N2        -23.0170    6.9887  -19.6419 N.pl3       1 SX3      -0.3308
      8 C9        -21.9942    4.9852  -18.7612 C.ar        1 SX3       0.0698
      9 C8        -21.2541    5.6735  -17.8068 C.2         1 SX3       0.1999
     10 O1        -20.0885    5.8673  -18.1406 O.2         1 SX3      -0.3919
     11 N1        -21.7182    6.0685  -16.6033 N.am        1 SX3      -0.2741
     12 C6        -23.0883    5.8545  -16.1595 C.3         1 SX3       0.0356
     13 C4        -23.7919    7.1711  -15.7018 C.3         1 SX3      -0.0232
     14 C5        -24.3911    7.9728  -16.8946 C.3         1 SX3      -0.0606
     15 C3        -22.8674    8.0047  -14.7549 C.3         1 SX3      -0.0442
     16 C7        -20.8516    6.6792  -15.6063 C.3         1 SX3       0.0356
     17 C2        -21.3673    8.0844  -15.1789 C.3         1 SX3      -0.0232
     18 C1        -21.0612    9.1609  -16.2546 C.3         1 SX3      -0.0606
     19 H1        -21.1488    3.0964  -18.2859 H           1 SX3       0.0663
     20 H2        -24.0240    2.9772  -21.3426 H           1 SX3       0.0644
     21 H3        -24.2915    5.3718  -21.2074 H           1 SX3       0.0535
     22 H4        -23.6026    7.4106  -20.2949 H           1 SX3       0.1755
     23 H5        -22.4964    7.5331  -19.0336 H           1 SX3       0.1755
     24 H6        -23.0630    5.1748  -15.3033 H           1 SX3       0.0524
     25 H7        -23.7217    5.3650  -16.9023 H           1 SX3       0.0524
     26 H8        -24.6673    6.8686  -15.1027 H           1 SX3       0.0318
     27 H9        -24.9848    8.8146  -16.5264 H           1 SX3       0.0233
     28 H10       -25.0509    7.3262  -17.4787 H           1 SX3       0.0233
     29 H11       -23.6128    8.3482  -17.5588 H           1 SX3       0.0233
     30 H12       -22.8981    7.5203  -13.7720 H           1 SX3       0.0272
     31 H13       -23.2763    9.0103  -14.6163 H           1 SX3       0.0272
     32 H14       -19.8095    6.7732  -15.9240 H           1 SX3       0.0524
     33 H15       -20.8299    6.0318  -14.7222 H           1 SX3       0.0524
     34 H16       -20.8050    8.3829  -14.2867 H           1 SX3       0.0318
     35 H17       -21.5564   10.1030  -16.0126 H           1 SX3       0.0233
     36 H18       -21.3821    8.8346  -17.2434 H           1 SX3       0.0233
     37 H19       -19.9852    9.3413  -16.2910 H           1 SX3       0.0233
@<TRIPOS>BOND
     1     1     2   1
     2     2     3  ar
     3     2     4  ar
     4     3     8  ar
     5     4     5  ar
     6     5     6  ar
     7     6     7   1
     8     6     8  ar
     9     8     9   1
    10     9    10   2
    11     9    11  am
    12    11    12   1
    13    11    16   1
    14    12    13   1
    15    13    14   1
    16    13    15   1
    17    15    17   1
    18    16    17   1
    19    17    18   1
    20     3    19   1
    21     4    20   1
    22     5    21   1
    23     7    22   1
    24     7    23   1
    25    12    24   1
    26    12    25   1
    27    13    26   1
    28    14    27   1
    29    14    28   1
    30    14    29   1
    31    15    30   1
    32    15    31   1
    33    16    32   1
    34    16    33   1
    35    17    34   1
    36    18    35   1
    37    18    36   1
    38    18    37   1
@<TRIPOS>SUBSTRUCTURE
     1  SX3      2

