@<TRIPOS>MOLECULE
3cj2_ligand_002
    37    38
SMALL
GAST_HUCK
****
This file was generated by PARSER (from files_GN.cpp)

@<TRIPOS>ATOM
      1 BR1       -21.6799    0.9403  -20.4034 Br          1 SX3      -0.0605
      2 C11       -20.3892    2.2723  -20.3301 C.ar        1 SX3       0.0047
      3 C10       -20.3414    3.1390  -19.2199 C.ar        1 SX3      -0.0437
      4 C12       -19.4812    2.4381  -21.3854 C.ar        1 SX3      -0.0597
      5 C13       -18.5067    3.4536  -21.3171 C.ar        1 SX3      -0.0356
      6 C14       -18.4638    4.3314  -20.2211 C.ar        1 SX3       0.0599
      7 N2        -17.5023    5.2775  -20.2309 N.pl3       1 SX3      -0.3308
      8 C9        -19.4208    4.2156  -19.1663 C.ar        1 SX3       0.0698
      9 C8        -19.4400    5.0962  -18.0767 C.2         1 SX3       0.1999
     10 O1        -18.3360    5.2577  -17.5737 O.2         1 SX3      -0.3919
     11 N1        -20.5171    5.7339  -17.5552 N.am        1 SX3      -0.2741
     12 C6        -20.3960    6.6233  -16.3986 C.3         1 SX3       0.0356
     13 C4        -20.9231    8.0516  -16.7322 C.3         1 SX3      -0.0232
     14 C5        -20.7772    9.0305  -15.5393 C.3         1 SX3      -0.0606
     15 C3        -22.3970    7.9607  -17.2208 C.3         1 SX3      -0.0442
     16 C7        -21.8717    5.6148  -18.0860 C.3         1 SX3       0.0356
     17 C2        -22.5108    6.9918  -18.4323 C.3         1 SX3      -0.0232
     18 C1        -23.9797    6.8279  -18.9117 C.3         1 SX3      -0.0606
     19 H1        -20.9927    2.9751  -18.4457 H           1 SX3       0.0663
     20 H2        -19.5154    1.8178  -22.1990 H           1 SX3       0.0644
     21 H3        -17.8349    3.5436  -22.0870 H           1 SX3       0.0535
     22 H4        -16.8709    5.3226  -20.9703 H           1 SX3       0.1755
     23 H5        -17.4104    5.9009  -19.4936 H           1 SX3       0.1755
     24 H6        -19.3707    6.7294  -16.0306 H           1 SX3       0.0524
     25 H7        -20.9741    6.1989  -15.5711 H           1 SX3       0.0524
     26 H8        -20.3183    8.4553  -17.5527 H           1 SX3       0.0318
     27 H9        -21.1362   10.0227  -15.8219 H           1 SX3       0.0233
     28 H10       -19.7275    9.1185  -15.2505 H           1 SX3       0.0233
     29 H11       -21.3516    8.6797  -14.6804 H           1 SX3       0.0233
     30 H12       -22.7446    8.9552  -17.5107 H           1 SX3       0.0272
     31 H13       -23.0329    7.6057  -16.4035 H           1 SX3       0.0272
     32 H14       -22.4927    5.1192  -17.3323 H           1 SX3       0.0524
     33 H15       -21.9268    5.0163  -18.9953 H           1 SX3       0.0524
     34 H16       -21.9423    7.4212  -19.2637 H           1 SX3       0.0318
     35 H17       -24.3924    7.7900  -19.2191 H           1 SX3       0.0233
     36 H18       -24.6037    6.4180  -18.1148 H           1 SX3       0.0233
     37 H19       -24.0225    6.1530  -19.7685 H           1 SX3       0.0233
@<TRIPOS>BOND
     1     1     2   1
     2     2     3  ar
     3     2     4  ar
     4     3     8  ar
     5     4     5  ar
     6     5     6  ar
     7     6     7   1
     8     6     8  ar
     9     8     9   1
    10     9    10   2
    11     9    11  am
    12    11    12   1
    13    11    16   1
    14    12    13   1
    15    13    14   1
    16    13    15   1
    17    15    17   1
    18    16    17   1
    19    17    18   1
    20     3    19   1
    21     4    20   1
    22     5    21   1
    23     7    22   1
    24     7    23   1
    25    12    24   1
    26    12    25   1
    27    13    26   1
    28    14    27   1
    29    14    28   1
    30    14    29   1
    31    15    30   1
    32    15    31   1
    33    16    32   1
    34    16    33   1
    35    17    34   1
    36    18    35   1
    37    18    36   1
    38    18    37   1
@<TRIPOS>SUBSTRUCTURE
     1  SX3      2

