@<TRIPOS>MOLECULE
3cj2_ligand_032
    37    38
SMALL
GAST_HUCK
****
This file was generated by PARSER (from files_GN.cpp)

@<TRIPOS>ATOM
      1 BR1       -34.5776   16.6295   -9.3826 Br          1 SX3      -0.0605
      2 C11       -32.7656   16.7503   -8.9573 C.ar        1 SX3       0.0047
      3 C10       -31.8071   16.1042   -9.7592 C.ar        1 SX3      -0.0437
      4 C12       -32.3550   17.5101   -7.8491 C.ar        1 SX3      -0.0597
      5 C13       -30.9886   17.5975   -7.5323 C.ar        1 SX3      -0.0356
      6 C14       -30.0206   16.9758   -8.3523 C.ar        1 SX3       0.0599
      7 N2        -28.7325   17.1094   -7.9771 N.pl3       1 SX3      -0.3308
      8 C9        -30.4194   16.2394   -9.5071 C.ar        1 SX3       0.0698
      9 C8        -29.4972   15.5994  -10.3427 C.2         1 SX3       0.1999
     10 O1        -28.6609   14.9458   -9.7288 O.2         1 SX3      -0.3919
     11 N1        -29.4931   15.5847  -11.6963 N.am        1 SX3      -0.2741
     12 C6        -28.5657   14.7581  -12.4656 C.3         1 SX3       0.0356
     13 C4        -29.3321   13.7770  -13.4046 C.3         1 SX3      -0.0232
     14 C5        -28.3546   12.9598  -14.2891 C.3         1 SX3      -0.0606
     15 C3        -30.3741   14.5441  -14.2750 C.3         1 SX3      -0.0442
     16 C7        -30.3710   16.3964  -12.5309 C.3         1 SX3       0.0356
     17 C2        -31.2747   15.4695  -13.4011 C.3         1 SX3      -0.0232
     18 C1        -32.2872   16.2760  -14.2572 C.3         1 SX3      -0.0606
     19 H1        -32.1404   15.5264  -10.5271 H           1 SX3       0.0663
     20 H2        -33.0469   17.9854   -7.2664 H           1 SX3       0.0644
     21 H3        -30.7045   18.1373   -6.7059 H           1 SX3       0.0535
     22 H4        -28.5219   17.5458   -7.1370 H           1 SX3       0.1755
     23 H5        -28.0288   16.6957   -8.4950 H           1 SX3       0.1755
     24 H6        -27.8859   14.1739  -11.8382 H           1 SX3       0.0524
     25 H7        -27.9366   15.4128  -13.0730 H           1 SX3       0.0524
     26 H8        -29.8801   13.0684  -12.7719 H           1 SX3       0.0318
     27 H9        -28.9063   12.2495  -14.9083 H           1 SX3       0.0233
     28 H10       -27.6585   12.3989  -13.6625 H           1 SX3       0.0233
     29 H11       -27.7805   13.6217  -14.9420 H           1 SX3       0.0233
     30 H12       -31.0040   13.8228  -14.8081 H           1 SX3       0.0272
     31 H13       -29.8524   15.1507  -15.0221 H           1 SX3       0.0272
     32 H14       -29.7612   17.0252  -13.1898 H           1 SX3       0.0524
     33 H15       -30.9895   17.0903  -11.9648 H           1 SX3       0.0524
     34 H16       -31.8625   14.8328  -12.7316 H           1 SX3       0.0318
     35 H17       -32.9045   15.5971  -14.8514 H           1 SX3       0.0233
     36 H18       -31.7682   16.9598  -14.9317 H           1 SX3       0.0233
     37 H19       -32.9499   16.8564  -13.6097 H           1 SX3       0.0233
@<TRIPOS>BOND
     1     1     2   1
     2     2     3  ar
     3     2     4  ar
     4     3     8  ar
     5     4     5  ar
     6     5     6  ar
     7     6     7   1
     8     6     8  ar
     9     8     9   1
    10     9    10   2
    11     9    11  am
    12    11    12   1
    13    11    16   1
    14    12    13   1
    15    13    14   1
    16    13    15   1
    17    15    17   1
    18    16    17   1
    19    17    18   1
    20     3    19   1
    21     4    20   1
    22     5    21   1
    23     7    22   1
    24     7    23   1
    25    12    24   1
    26    12    25   1
    27    13    26   1
    28    14    27   1
    29    14    28   1
    30    14    29   1
    31    15    30   1
    32    15    31   1
    33    16    32   1
    34    16    33   1
    35    17    34   1
    36    18    35   1
    37    18    36   1
    38    18    37   1
@<TRIPOS>SUBSTRUCTURE
     1  SX3      2

