@<TRIPOS>MOLECULE
3cj2_ligand_027
    37    38
SMALL
GAST_HUCK
****
This file was generated by PARSER (from files_GN.cpp)

@<TRIPOS>ATOM
      1 BR1       -21.9788    5.1007  -18.5959 Br          1 SX3      -0.0605
      2 C11       -20.2483    4.6220  -19.0961 C.ar        1 SX3       0.0047
      3 C10       -20.0615    3.5840  -20.0276 C.ar        1 SX3      -0.0437
      4 C12       -19.1339    5.2871  -18.5639 C.ar        1 SX3      -0.0597
      5 C13       -17.8428    4.9288  -18.9834 C.ar        1 SX3      -0.0356
      6 C14       -17.6407    3.8814  -19.9071 C.ar        1 SX3       0.0599
      7 N2        -16.3666    3.5907  -20.2376 N.pl3       1 SX3      -0.3308
      8 C9        -18.7632    3.1615  -20.4146 C.ar        1 SX3       0.0698
      9 C8        -18.6412    2.0791  -21.2959 C.2         1 SX3       0.1999
     10 O1        -17.8773    2.2899  -22.2303 O.2         1 SX3      -0.3919
     11 N1        -19.2519    0.8747  -21.1863 N.am        1 SX3      -0.2741
     12 C6        -19.0708   -0.1780  -22.1833 C.3         1 SX3       0.0356
     13 C4        -20.4359   -0.6444  -22.7642 C.3         1 SX3      -0.0232
     14 C5        -21.0407    0.4047  -23.7383 C.3         1 SX3      -0.0606
     15 C3        -21.3864   -1.0826  -21.6055 C.3         1 SX3      -0.0442
     16 C7        -20.0302    0.4507  -20.0251 C.3         1 SX3       0.0356
     17 C2        -21.4477   -0.1095  -20.3857 C.3         1 SX3      -0.0232
     18 C1        -22.5448    0.9843  -20.5410 C.3         1 SX3      -0.0606
     19 H1        -20.8954    3.1189  -20.4116 H           1 SX3       0.0663
     20 H2        -19.2690    6.0377  -17.8896 H           1 SX3       0.0644
     21 H3        -17.0488    5.4355  -18.6001 H           1 SX3       0.0535
     22 H4        -15.6474    4.0933  -19.8270 H           1 SX3       0.1755
     23 H5        -16.1638    2.8748  -20.8600 H           1 SX3       0.1755
     24 H6        -18.5710   -1.0323  -21.7115 H           1 SX3       0.0524
     25 H7        -18.4348    0.1040  -23.0289 H           1 SX3       0.0524
     26 H8        -20.2453   -1.5386  -23.3687 H           1 SX3       0.0318
     27 H9        -22.0342    0.0942  -24.0704 H           1 SX3       0.0233
     28 H10       -20.4042    0.5004  -24.6224 H           1 SX3       0.0233
     29 H11       -21.1127    1.3891  -23.2766 H           1 SX3       0.0233
     30 H12       -21.0195   -2.0445  -21.2355 H           1 SX3       0.0272
     31 H13       -22.3922   -1.2624  -21.9935 H           1 SX3       0.0272
     32 H14       -20.1398    1.2181  -19.2586 H           1 SX3       0.0524
     33 H15       -19.4637   -0.3456  -19.5329 H           1 SX3       0.0524
     34 H16       -21.7684   -0.7099  -19.5265 H           1 SX3       0.0318
     35 H17       -23.5320    0.5191  -20.6714 H           1 SX3       0.0233
     36 H18       -22.3471    1.6266  -21.3998 H           1 SX3       0.0233
     37 H19       -22.5731    1.6086  -19.6396 H           1 SX3       0.0233
@<TRIPOS>BOND
     1     1     2   1
     2     2     3  ar
     3     2     4  ar
     4     3     8  ar
     5     4     5  ar
     6     5     6  ar
     7     6     7   1
     8     6     8  ar
     9     8     9   1
    10     9    10   2
    11     9    11  am
    12    11    12   1
    13    11    16   1
    14    12    13   1
    15    13    14   1
    16    13    15   1
    17    15    17   1
    18    16    17   1
    19    17    18   1
    20     3    19   1
    21     4    20   1
    22     5    21   1
    23     7    22   1
    24     7    23   1
    25    12    24   1
    26    12    25   1
    27    13    26   1
    28    14    27   1
    29    14    28   1
    30    14    29   1
    31    15    30   1
    32    15    31   1
    33    16    32   1
    34    16    33   1
    35    17    34   1
    36    18    35   1
    37    18    36   1
    38    18    37   1
@<TRIPOS>SUBSTRUCTURE
     1  SX3      2

