@<TRIPOS>MOLECULE
3cj2_ligand_082
    37    38
SMALL
GAST_HUCK
****
This file was generated by PARSER (from files_GN.cpp)

@<TRIPOS>ATOM
      1 BR1       -25.5270    1.2875  -21.8530 Br          1 SX3      -0.0605
      2 C11       -23.9976    0.6049  -21.0443 C.ar        1 SX3       0.0047
      3 C10       -22.7822    1.3061  -21.1304 C.ar        1 SX3      -0.0437
      4 C12       -24.0608   -0.6090  -20.3433 C.ar        1 SX3      -0.0597
      5 C13       -22.9066   -1.1284  -19.7325 C.ar        1 SX3      -0.0356
      6 C14       -21.6863   -0.4225  -19.7966 C.ar        1 SX3       0.0599
      7 N2        -20.6188   -0.9493  -19.1628 N.pl3       1 SX3      -0.3308
      8 C9        -21.6152    0.8208  -20.4882 C.ar        1 SX3       0.0698
      9 C8        -20.4215    1.5434  -20.5779 C.2         1 SX3       0.1999
     10 O1        -19.5082    0.9095  -21.0946 O.2         1 SX3      -0.3919
     11 N1        -20.2354    2.8324  -20.2091 N.am        1 SX3      -0.2741
     12 C6        -21.2410    3.6200  -19.4956 C.3         1 SX3       0.0356
     13 C4        -20.6847    4.3480  -18.2348 C.3         1 SX3      -0.0232
     14 C5        -21.7406    5.3030  -17.6179 C.3         1 SX3      -0.0606
     15 C3        -19.3716    5.1129  -18.5656 C.3         1 SX3      -0.0442
     16 C7        -19.0054    3.5472  -20.5318 C.3         1 SX3       0.0356
     17 C2        -18.3461    4.1954  -19.2799 C.3         1 SX3      -0.0232
     18 C1        -17.0486    4.9615  -19.6446 C.3         1 SX3      -0.0606
     19 H1        -22.7512    2.1797  -21.6649 H           1 SX3       0.0663
     20 H2        -24.9425   -1.1166  -20.2766 H           1 SX3       0.0644
     21 H3        -22.9677   -2.0095  -19.2225 H           1 SX3       0.0535
     22 H4        -20.7066   -1.7639  -18.6418 H           1 SX3       0.1755
     23 H5        -19.7715   -0.4774  -19.1638 H           1 SX3       0.1755
     24 H6        -22.0854    3.0142  -19.1614 H           1 SX3       0.0524
     25 H7        -21.6408    4.3631  -20.1870 H           1 SX3       0.0524
     26 H8        -20.4441    3.5809  -17.4923 H           1 SX3       0.0318
     27 H9        -21.3721    5.7089  -16.6728 H           1 SX3       0.0233
     28 H10       -22.6728    4.7712  -17.4187 H           1 SX3       0.0233
     29 H11       -21.9585    6.1321  -18.2931 H           1 SX3       0.0233
     30 H12       -18.9363    5.4925  -17.6362 H           1 SX3       0.0272
     31 H13       -19.5983    5.9727  -19.2070 H           1 SX3       0.0272
     32 H14       -19.2504    4.3314  -21.2443 H           1 SX3       0.0524
     33 H15       -18.2503    2.9218  -21.0171 H           1 SX3       0.0524
     34 H16       -18.0711    3.3900  -18.5909 H           1 SX3       0.0318
     35 H17       -16.6324    5.4409  -18.7586 H           1 SX3       0.0233
     36 H18       -17.2495    5.7317  -20.3929 H           1 SX3       0.0233
     37 H19       -16.3022    4.2723  -20.0449 H           1 SX3       0.0233
@<TRIPOS>BOND
     1     1     2   1
     2     2     3  ar
     3     2     4  ar
     4     3     8  ar
     5     4     5  ar
     6     5     6  ar
     7     6     7   1
     8     6     8  ar
     9     8     9   1
    10     9    10   2
    11     9    11  am
    12    11    12   1
    13    11    16   1
    14    12    13   1
    15    13    14   1
    16    13    15   1
    17    15    17   1
    18    16    17   1
    19    17    18   1
    20     3    19   1
    21     4    20   1
    22     5    21   1
    23     7    22   1
    24     7    23   1
    25    12    24   1
    26    12    25   1
    27    13    26   1
    28    14    27   1
    29    14    28   1
    30    14    29   1
    31    15    30   1
    32    15    31   1
    33    16    32   1
    34    16    33   1
    35    17    34   1
    36    18    35   1
    37    18    36   1
    38    18    37   1
@<TRIPOS>SUBSTRUCTURE
     1  SX3      2

