@<TRIPOS>MOLECULE
3cj2_ligand_088
    37    38
SMALL
GAST_HUCK
****
This file was generated by PARSER (from files_GN.cpp)

@<TRIPOS>ATOM
      1 BR1       -24.2834    7.7826  -23.7220 Br          1 SX3      -0.0605
      2 C11       -24.2441    6.6605  -22.2379 C.ar        1 SX3       0.0047
      3 C10       -24.2878    7.2037  -20.9401 C.ar        1 SX3      -0.0437
      4 C12       -24.1668    5.2680  -22.4131 C.ar        1 SX3      -0.0597
      5 C13       -24.1385    4.4196  -21.2927 C.ar        1 SX3      -0.0356
      6 C14       -24.1805    4.9565  -19.9881 C.ar        1 SX3       0.0599
      7 N2        -24.1456    4.0979  -18.9505 N.pl3       1 SX3      -0.3308
      8 C9        -24.2628    6.3617  -19.8032 C.ar        1 SX3       0.0698
      9 C8        -24.2983    6.9318  -18.5367 C.2         1 SX3       0.1999
     10 O1        -25.3978    6.8791  -17.9998 O.2         1 SX3      -0.3919
     11 N1        -23.2364    7.4706  -17.9054 N.am        1 SX3      -0.2741
     12 C6        -21.8816    7.4432  -18.4406 C.3         1 SX3       0.0356
     13 C4        -20.9143    6.6593  -17.5027 C.3         1 SX3      -0.0232
     14 C5        -21.0555    5.1214  -17.6683 C.3         1 SX3      -0.0606
     15 C3        -21.0522    7.1568  -16.0283 C.3         1 SX3      -0.0442
     16 C7        -23.3553    8.1126  -16.6026 C.3         1 SX3       0.0356
     17 C2        -22.5162    7.3642  -15.5250 C.3         1 SX3      -0.0232
     18 C1        -23.2187    6.0652  -15.0405 C.3         1 SX3      -0.0606
     19 H1        -24.3528    8.2185  -20.8342 H           1 SX3       0.0663
     20 H2        -24.1290    4.8695  -23.3550 H           1 SX3       0.0644
     21 H3        -24.0844    3.4067  -21.4360 H           1 SX3       0.0535
     22 H4        -24.0909    3.1425  -19.1111 H           1 SX3       0.1755
     23 H5        -24.1655    4.4310  -18.0394 H           1 SX3       0.1755
     24 H6        -21.5241    8.4735  -18.5349 H           1 SX3       0.0524
     25 H7        -21.8122    7.0141  -19.4428 H           1 SX3       0.0524
     26 H8        -19.8930    6.8936  -17.8213 H           1 SX3       0.0318
     27 H9        -20.3945    4.5990  -16.9758 H           1 SX3       0.0233
     28 H10       -20.7802    4.8287  -18.6831 H           1 SX3       0.0233
     29 H11       -22.0739    4.7921  -17.4905 H           1 SX3       0.0233
     30 H12       -20.5490    8.1275  -15.9664 H           1 SX3       0.0272
     31 H13       -20.5116    6.4895  -15.3519 H           1 SX3       0.0272
     32 H14       -24.3853    8.1991  -16.2459 H           1 SX3       0.0524
     33 H15       -22.9891    9.1414  -16.6851 H           1 SX3       0.0524
     34 H16       -22.4579    8.0145  -14.6451 H           1 SX3       0.0318
     35 H17       -22.5550    5.4841  -14.3985 H           1 SX3       0.0233
     36 H18       -23.5345    5.4429  -15.8751 H           1 SX3       0.0233
     37 H19       -24.1089    6.3203  -14.4620 H           1 SX3       0.0233
@<TRIPOS>BOND
     1     1     2   1
     2     2     3  ar
     3     2     4  ar
     4     3     8  ar
     5     4     5  ar
     6     5     6  ar
     7     6     7   1
     8     6     8  ar
     9     8     9   1
    10     9    10   2
    11     9    11  am
    12    11    12   1
    13    11    16   1
    14    12    13   1
    15    13    14   1
    16    13    15   1
    17    15    17   1
    18    16    17   1
    19    17    18   1
    20     3    19   1
    21     4    20   1
    22     5    21   1
    23     7    22   1
    24     7    23   1
    25    12    24   1
    26    12    25   1
    27    13    26   1
    28    14    27   1
    29    14    28   1
    30    14    29   1
    31    15    30   1
    32    15    31   1
    33    16    32   1
    34    16    33   1
    35    17    34   1
    36    18    35   1
    37    18    36   1
    38    18    37   1
@<TRIPOS>SUBSTRUCTURE
     1  SX3      2

