@<TRIPOS>MOLECULE
3cj2_ligand_001
    37    38
SMALL
GAST_HUCK
****
This file was generated by PARSER (from files_GN.cpp)

@<TRIPOS>ATOM
      1 BR1       -21.5411    0.8788  -20.4340 Br          1 SX3      -0.0605
      2 C11       -20.2572    2.2204  -20.3115 C.ar        1 SX3       0.0047
      3 C10       -20.2522    3.0938  -19.2093 C.ar        1 SX3      -0.0437
      4 C12       -19.3147    2.3815  -21.3412 C.ar        1 SX3      -0.0597
      5 C13       -18.3531    3.4009  -21.2587 C.ar        1 SX3      -0.0356
      6 C14       -18.3382    4.2838  -20.1608 C.ar        1 SX3       0.0599
      7 N2        -17.3992    5.2545  -20.1509 N.pl3       1 SX3      -0.3308
      8 C9        -19.3082    4.1520  -19.1293 C.ar        1 SX3       0.0698
      9 C8        -19.3537    5.0471  -18.0651 C.2         1 SX3       0.1999
     10 O1        -18.3623    4.9953  -17.3460 O.2         1 SX3      -0.3919
     11 N1        -20.3239    5.9580  -17.8399 N.am        1 SX3      -0.2741
     12 C6        -21.5168    6.1095  -18.6697 C.3         1 SX3       0.0356
     13 C4        -22.8021    5.9039  -17.8102 C.3         1 SX3      -0.0232
     14 C5        -24.0960    6.0402  -18.6551 C.3         1 SX3      -0.0606
     15 C3        -22.7968    6.8884  -16.6019 C.3         1 SX3      -0.0442
     16 C7        -20.2439    6.9113  -16.7362 C.3         1 SX3       0.0356
     17 C2        -21.4723    6.7861  -15.7877 C.3         1 SX3      -0.0232
     18 C1        -21.4181    7.8396  -14.6476 C.3         1 SX3      -0.0606
     19 H1        -20.9415    2.9551  -18.4661 H           1 SX3       0.0663
     20 H2        -19.3224    1.7532  -22.1492 H           1 SX3       0.0644
     21 H3        -17.6607    3.4963  -22.0074 H           1 SX3       0.0535
     22 H4        -16.7604    5.3214  -20.8792 H           1 SX3       0.1755
     23 H5        -17.3492    5.8777  -19.4080 H           1 SX3       0.1755
     24 H6        -21.5554    5.4154  -19.5126 H           1 SX3       0.0524
     25 H7        -21.5200    7.1193  -19.0965 H           1 SX3       0.0524
     26 H8        -22.7869    4.8834  -17.4140 H           1 SX3       0.0318
     27 H9        -24.9766    5.8847  -18.0278 H           1 SX3       0.0233
     28 H10       -24.1096    5.2903  -19.4482 H           1 SX3       0.0233
     29 H11       -24.1597    7.0306  -19.1096 H           1 SX3       0.0233
     30 H12       -23.6431    6.6639  -15.9446 H           1 SX3       0.0272
     31 H13       -22.9191    7.9119  -16.9721 H           1 SX3       0.0272
     32 H14       -20.2206    7.9202  -17.1562 H           1 SX3       0.0524
     33 H15       -19.3354    6.8093  -16.1324 H           1 SX3       0.0524
     34 H16       -21.4354    5.7955  -15.3206 H           1 SX3       0.0318
     35 H17       -22.2711    7.7189  -13.9765 H           1 SX3       0.0233
     36 H18       -21.4353    8.8532  -15.0547 H           1 SX3       0.0233
     37 H19       -20.5036    7.7159  -14.0636 H           1 SX3       0.0233
@<TRIPOS>BOND
     1     1     2   1
     2     2     3  ar
     3     2     4  ar
     4     3     8  ar
     5     4     5  ar
     6     5     6  ar
     7     6     7   1
     8     6     8  ar
     9     8     9   1
    10     9    10   2
    11     9    11  am
    12    11    12   1
    13    11    16   1
    14    12    13   1
    15    13    14   1
    16    13    15   1
    17    15    17   1
    18    16    17   1
    19    17    18   1
    20     3    19   1
    21     4    20   1
    22     5    21   1
    23     7    22   1
    24     7    23   1
    25    12    24   1
    26    12    25   1
    27    13    26   1
    28    14    27   1
    29    14    28   1
    30    14    29   1
    31    15    30   1
    32    15    31   1
    33    16    32   1
    34    16    33   1
    35    17    34   1
    36    18    35   1
    37    18    36   1
    38    18    37   1
@<TRIPOS>SUBSTRUCTURE
     1  SX3      2

