@<TRIPOS>MOLECULE
3cj2_ligand_013
    37    38
SMALL
GAST_HUCK
****
This file was generated by PARSER (from files_GN.cpp)

@<TRIPOS>ATOM
      1 BR1       -31.7693   12.7435  -11.9078 Br          1 SX3      -0.0605
      2 C11       -30.2931   13.3200  -10.9329 C.ar        1 SX3       0.0047
      3 C10       -30.1454   14.6814  -10.6063 C.ar        1 SX3      -0.0437
      4 C12       -29.3310   12.3865  -10.5097 C.ar        1 SX3      -0.0597
      5 C13       -28.2054   12.8170   -9.7838 C.ar        1 SX3      -0.0356
      6 C14       -28.0386   14.1785   -9.4614 C.ar        1 SX3       0.0599
      7 N2        -26.9307   14.5287   -8.7749 N.pl3       1 SX3      -0.3308
      8 C9        -29.0345   15.1226   -9.8449 C.ar        1 SX3       0.0698
      9 C8        -28.9352   16.4756   -9.5195 C.2         1 SX3       0.1999
     10 O1        -28.0029   17.0349  -10.0852 O.2         1 SX3      -0.3919
     11 N1        -29.7340   17.1390   -8.6521 N.am        1 SX3      -0.2741
     12 C6        -30.8320   16.5257   -7.9189 C.3         1 SX3       0.0356
     13 C4        -32.1893   17.2755   -8.1028 C.3         1 SX3      -0.0232
     14 C5        -32.9234   16.9066   -9.4234 C.3         1 SX3      -0.0606
     15 C3        -32.0053   18.8119   -7.8978 C.3         1 SX3      -0.0442
     16 C7        -29.4913   18.5328   -8.3044 C.3         1 SX3       0.0356
     17 C2        -30.7369   19.4287   -8.5679 C.3         1 SX3      -0.0232
     18 C1        -30.9008   19.7614  -10.0777 C.3         1 SX3      -0.0606
     19 H1        -30.8539   15.3464  -10.9246 H           1 SX3       0.0663
     20 H2        -29.4451   11.3960  -10.7338 H           1 SX3       0.0644
     21 H3        -27.5147   12.1260   -9.4898 H           1 SX3       0.0535
     22 H4        -26.2823   13.8515   -8.5256 H           1 SX3       0.1755
     23 H5        -26.7741   15.4552   -8.5323 H           1 SX3       0.1755
     24 H6        -30.5761   16.5462   -6.8535 H           1 SX3       0.0524
     25 H7        -30.9862   15.4701   -8.1527 H           1 SX3       0.0524
     26 H8        -32.8554   16.9287   -7.3027 H           1 SX3       0.0318
     27 H9        -33.8991   17.4009   -9.4564 H           1 SX3       0.0233
     28 H10       -33.0903   15.8297   -9.4694 H           1 SX3       0.0233
     29 H11       -32.3515   17.1994  -10.2985 H           1 SX3       0.0233
     30 H12       -31.9170   18.9867   -6.8216 H           1 SX3       0.0272
     31 H13       -32.8994   19.3475   -8.2220 H           1 SX3       0.0272
     32 H14       -28.6368   18.9777   -8.8248 H           1 SX3       0.0524
     33 H15       -29.2418   18.5840   -7.2378 H           1 SX3       0.0524
     34 H16       -30.5574   20.3916   -8.0711 H           1 SX3       0.0318
     35 H17       -31.8471   20.2724  -10.2597 H           1 SX3       0.0233
     36 H18       -30.8588   18.8652  -10.6924 H           1 SX3       0.0233
     37 H19       -30.0937   20.4231  -10.3997 H           1 SX3       0.0233
@<TRIPOS>BOND
     1     1     2   1
     2     2     3  ar
     3     2     4  ar
     4     3     8  ar
     5     4     5  ar
     6     5     6  ar
     7     6     7   1
     8     6     8  ar
     9     8     9   1
    10     9    10   2
    11     9    11  am
    12    11    12   1
    13    11    16   1
    14    12    13   1
    15    13    14   1
    16    13    15   1
    17    15    17   1
    18    16    17   1
    19    17    18   1
    20     3    19   1
    21     4    20   1
    22     5    21   1
    23     7    22   1
    24     7    23   1
    25    12    24   1
    26    12    25   1
    27    13    26   1
    28    14    27   1
    29    14    28   1
    30    14    29   1
    31    15    30   1
    32    15    31   1
    33    16    32   1
    34    16    33   1
    35    17    34   1
    36    18    35   1
    37    18    36   1
    38    18    37   1
@<TRIPOS>SUBSTRUCTURE
     1  SX3      2

