@<TRIPOS>MOLECULE
3cj2_ligand_063
    37    38
SMALL
GAST_HUCK
****
This file was generated by PARSER (from files_GN.cpp)

@<TRIPOS>ATOM
      1 BR1       -22.9097   -0.0922  -26.4854 Br          1 SX3      -0.0605
      2 C11       -22.1669   -0.3249  -24.7953 C.ar        1 SX3       0.0047
      3 C10       -22.1429    0.7448  -23.8823 C.ar        1 SX3      -0.0437
      4 C12       -21.6282   -1.5700  -24.4298 C.ar        1 SX3      -0.0597
      5 C13       -21.0686   -1.7470  -23.1523 C.ar        1 SX3      -0.0356
      6 C14       -21.0386   -0.6801  -22.2300 C.ar        1 SX3       0.0599
      7 N2        -20.4805   -0.9048  -21.0226 N.pl3       1 SX3      -0.3308
      8 C9        -21.5837    0.5825  -22.5913 C.ar        1 SX3       0.0698
      9 C8        -21.5803    1.6686  -21.7210 C.2         1 SX3       0.1999
     10 O1        -20.8862    2.6067  -22.0967 O.2         1 SX3      -0.3919
     11 N1        -22.2697    1.7369  -20.5645 N.am        1 SX3      -0.2741
     12 C6        -23.2189    0.7203  -20.1291 C.3         1 SX3       0.0356
     13 C4        -24.6616    1.2920  -20.0026 C.3         1 SX3      -0.0232
     14 C5        -25.3638    1.4116  -21.3837 C.3         1 SX3      -0.0606
     15 C3        -24.6569    2.6138  -19.1716 C.3         1 SX3      -0.0442
     16 C7        -22.1592    2.8779  -19.6656 C.3         1 SX3       0.0356
     17 C2        -23.5191    3.6237  -19.5236 C.3         1 SX3      -0.0232
     18 C1        -23.8178    4.5229  -20.7557 C.3         1 SX3      -0.0606
     19 H1        -22.5517    1.6410  -24.1626 H           1 SX3       0.0663
     20 H2        -21.6390   -2.3477  -25.0934 H           1 SX3       0.0644
     21 H3        -20.6814   -2.6604  -22.8996 H           1 SX3       0.0535
     22 H4        -20.1226   -1.7832  -20.8050 H           1 SX3       0.1755
     23 H5        -20.4435   -0.1942  -20.3629 H           1 SX3       0.1755
     24 H6        -22.9000    0.3469  -19.1539 H           1 SX3       0.0524
     25 H7        -23.2614   -0.1575  -20.7756 H           1 SX3       0.0524
     26 H8        -25.2500    0.5619  -19.4349 H           1 SX3       0.0318
     27 H9        -26.3568    1.8496  -21.2689 H           1 SX3       0.0233
     28 H10       -25.4815    0.4214  -21.8287 H           1 SX3       0.0233
     29 H11       -24.7886    2.0214  -22.0765 H           1 SX3       0.0233
     30 H12       -24.5271    2.3350  -18.1207 H           1 SX3       0.0272
     31 H13       -25.6309    3.1045  -19.2394 H           1 SX3       0.0272
     32 H14       -21.3918    3.5988  -19.9584 H           1 SX3       0.0524
     33 H15       -21.8490    2.5144  -18.6826 H           1 SX3       0.0524
     34 H16       -23.4296    4.3076  -18.6720 H           1 SX3       0.0318
     35 H17       -24.8324    4.9215  -20.7060 H           1 SX3       0.0233
     36 H18       -23.6967    3.9804  -21.6916 H           1 SX3       0.0233
     37 H19       -23.1275    5.3672  -20.7703 H           1 SX3       0.0233
@<TRIPOS>BOND
     1     1     2   1
     2     2     3  ar
     3     2     4  ar
     4     3     8  ar
     5     4     5  ar
     6     5     6  ar
     7     6     7   1
     8     6     8  ar
     9     8     9   1
    10     9    10   2
    11     9    11  am
    12    11    12   1
    13    11    16   1
    14    12    13   1
    15    13    14   1
    16    13    15   1
    17    15    17   1
    18    16    17   1
    19    17    18   1
    20     3    19   1
    21     4    20   1
    22     5    21   1
    23     7    22   1
    24     7    23   1
    25    12    24   1
    26    12    25   1
    27    13    26   1
    28    14    27   1
    29    14    28   1
    30    14    29   1
    31    15    30   1
    32    15    31   1
    33    16    32   1
    34    16    33   1
    35    17    34   1
    36    18    35   1
    37    18    36   1
    38    18    37   1
@<TRIPOS>SUBSTRUCTURE
     1  SX3      2

