@<TRIPOS>MOLECULE
3cj2_ligand_011
    37    38
SMALL
GAST_HUCK
****
This file was generated by PARSER (from files_GN.cpp)

@<TRIPOS>ATOM
      1 BR1       -16.9868    4.7738  -20.3288 Br          1 SX3      -0.0605
      2 C11       -18.5765    3.8572  -20.0232 C.ar        1 SX3       0.0047
      3 C10       -19.7452    4.5657  -19.6948 C.ar        1 SX3      -0.0437
      4 C12       -18.6097    2.4553  -20.1192 C.ar        1 SX3      -0.0597
      5 C13       -19.8168    1.7666  -19.9114 C.ar        1 SX3      -0.0356
      6 C14       -20.9914    2.4695  -19.5712 C.ar        1 SX3       0.0599
      7 N2        -22.1182    1.7482  -19.3945 N.pl3       1 SX3      -0.3308
      8 C9        -20.9570    3.8850  -19.4190 C.ar        1 SX3       0.0698
      9 C8        -22.0941    4.6051  -19.0526 C.2         1 SX3       0.1999
     10 O1        -23.0256    4.4822  -19.8410 O.2         1 SX3      -0.3919
     11 N1        -22.2459    5.3461  -17.9320 N.am        1 SX3      -0.2741
     12 C6        -21.1852    5.6031  -16.9650 C.3         1 SX3       0.0356
     13 C4        -20.9151    7.1346  -16.8593 C.3         1 SX3      -0.0232
     14 C5        -19.7694    7.4552  -15.8636 C.3         1 SX3      -0.0606
     15 C3        -22.2337    7.8726  -16.4810 C.3         1 SX3      -0.0442
     16 C7        -23.5249    5.9489  -17.5701 C.3         1 SX3       0.0356
     17 C2        -23.3968    7.4959  -17.4467 C.3         1 SX3      -0.0232
     18 C1        -24.7354    8.1501  -17.0128 C.3         1 SX3      -0.0606
     19 H1        -19.7019    5.5865  -19.6435 H           1 SX3       0.0663
     20 H2        -17.7600    1.9346  -20.3531 H           1 SX3       0.0644
     21 H3        -19.8309    0.7461  -20.0057 H           1 SX3       0.0535
     22 H4        -22.1034    0.7865  -19.5213 H           1 SX3       0.1755
     23 H5        -22.9484    2.1850  -19.1527 H           1 SX3       0.1755
     24 H6        -20.2480    5.0971  -17.1924 H           1 SX3       0.0524
     25 H7        -21.4922    5.2255  -15.9856 H           1 SX3       0.0524
     26 H8        -20.5989    7.4907  -17.8459 H           1 SX3       0.0318
     27 H9        -19.5977    8.5330  -15.8216 H           1 SX3       0.0233
     28 H10       -18.8442    6.9756  -16.1888 H           1 SX3       0.0233
     29 H11       -20.0137    7.0976  -14.8611 H           1 SX3       0.0233
     30 H12       -22.0683    8.9527  -16.5209 H           1 SX3       0.0272
     31 H13       -22.5135    7.6118  -15.4557 H           1 SX3       0.0272
     32 H14       -23.8494    5.5301  -16.6115 H           1 SX3       0.0524
     33 H15       -24.3249    5.7310  -18.2823 H           1 SX3       0.0524
     34 H16       -23.1492    7.8806  -18.4401 H           1 SX3       0.0318
     35 H17       -24.6275    9.2355  -16.9645 H           1 SX3       0.0233
     36 H18       -25.0438    7.7843  -16.0309 H           1 SX3       0.0233
     37 H19       -25.5218    7.9176  -17.7339 H           1 SX3       0.0233
@<TRIPOS>BOND
     1     1     2   1
     2     2     3  ar
     3     2     4  ar
     4     3     8  ar
     5     4     5  ar
     6     5     6  ar
     7     6     7   1
     8     6     8  ar
     9     8     9   1
    10     9    10   2
    11     9    11  am
    12    11    12   1
    13    11    16   1
    14    12    13   1
    15    13    14   1
    16    13    15   1
    17    15    17   1
    18    16    17   1
    19    17    18   1
    20     3    19   1
    21     4    20   1
    22     5    21   1
    23     7    22   1
    24     7    23   1
    25    12    24   1
    26    12    25   1
    27    13    26   1
    28    14    27   1
    29    14    28   1
    30    14    29   1
    31    15    30   1
    32    15    31   1
    33    16    32   1
    34    16    33   1
    35    17    34   1
    36    18    35   1
    37    18    36   1
    38    18    37   1
@<TRIPOS>SUBSTRUCTURE
     1  SX3      2

