@<TRIPOS>MOLECULE
3cj2_ligand_046
    37    38
SMALL
GAST_HUCK
****
This file was generated by PARSER (from files_GN.cpp)

@<TRIPOS>ATOM
      1 BR1       -23.8371    3.1275  -19.1332 Br          1 SX3      -0.0605
      2 C11       -22.4981    1.9705  -19.7047 C.ar        1 SX3       0.0047
      3 C10       -21.2125    2.4610  -20.0018 C.ar        1 SX3      -0.0437
      4 C12       -22.7655    0.5973  -19.8300 C.ar        1 SX3      -0.0597
      5 C13       -21.7447   -0.2854  -20.2240 C.ar        1 SX3      -0.0356
      6 C14       -20.4485    0.1969  -20.4931 C.ar        1 SX3       0.0599
      7 N2        -19.4891   -0.7052  -20.7822 N.pl3       1 SX3      -0.3308
      8 C9        -20.1750    1.5922  -20.4270 C.ar        1 SX3       0.0698
      9 C8        -18.9092    2.1263  -20.6946 C.2         1 SX3       0.1999
     10 O1        -18.4698    2.8090  -19.7749 O.2         1 SX3      -0.3919
     11 N1        -18.2091    2.0066  -21.8483 N.am        1 SX3      -0.2741
     12 C6        -18.7614    1.4183  -23.0618 C.3         1 SX3       0.0356
     13 C4        -17.7848    0.4701  -23.8281 C.3         1 SX3      -0.0232
     14 C5        -17.7539   -0.9833  -23.2781 C.3         1 SX3      -0.0606
     15 C3        -16.3690    1.1110  -23.9609 C.3         1 SX3      -0.0442
     16 C7        -16.9296    2.6882  -22.0309 C.3         1 SX3       0.0356
     17 C2        -15.8295    1.7777  -22.6583 C.3         1 SX3      -0.0232
     18 C1        -15.2239    0.7946  -21.6151 C.3         1 SX3      -0.0606
     19 H1        -21.0431    3.4682  -19.9116 H           1 SX3       0.0663
     20 H2        -23.6984    0.2357  -19.6197 H           1 SX3       0.0644
     21 H3        -21.9490   -1.2855  -20.2864 H           1 SX3       0.0535
     22 H4        -19.7050   -1.6519  -20.8100 H           1 SX3       0.1755
     23 H5        -18.5781   -0.4128  -20.9428 H           1 SX3       0.1755
     24 H6        -19.0154    2.2466  -23.7300 H           1 SX3       0.0524
     25 H7        -19.6977    0.8809  -22.9025 H           1 SX3       0.0524
     26 H8        -18.1766    0.3757  -24.8482 H           1 SX3       0.0318
     27 H9        -17.1257   -1.6101  -23.9173 H           1 SX3       0.0233
     28 H10       -18.7639   -1.4040  -23.2810 H           1 SX3       0.0233
     29 H11       -17.3684   -1.0220  -22.2578 H           1 SX3       0.0233
     30 H12       -16.4309    1.8927  -24.7248 H           1 SX3       0.0272
     31 H13       -15.6498    0.3759  -24.3289 H           1 SX3       0.0272
     32 H14       -16.5165    3.1073  -21.1083 H           1 SX3       0.0524
     33 H15       -17.0909    3.5405  -22.7000 H           1 SX3       0.0524
     34 H16       -15.0026    2.4293  -22.9680 H           1 SX3       0.0318
     35 H17       -14.6514    0.0093  -22.1105 H           1 SX3       0.0233
     36 H18       -15.9996    0.3381  -21.0021 H           1 SX3       0.0233
     37 H19       -14.5466    1.3384  -20.9503 H           1 SX3       0.0233
@<TRIPOS>BOND
     1     1     2   1
     2     2     3  ar
     3     2     4  ar
     4     3     8  ar
     5     4     5  ar
     6     5     6  ar
     7     6     7   1
     8     6     8  ar
     9     8     9   1
    10     9    10   2
    11     9    11  am
    12    11    12   1
    13    11    16   1
    14    12    13   1
    15    13    14   1
    16    13    15   1
    17    15    17   1
    18    16    17   1
    19    17    18   1
    20     3    19   1
    21     4    20   1
    22     5    21   1
    23     7    22   1
    24     7    23   1
    25    12    24   1
    26    12    25   1
    27    13    26   1
    28    14    27   1
    29    14    28   1
    30    14    29   1
    31    15    30   1
    32    15    31   1
    33    16    32   1
    34    16    33   1
    35    17    34   1
    36    18    35   1
    37    18    36   1
    38    18    37   1
@<TRIPOS>SUBSTRUCTURE
     1  SX3      2

