@<TRIPOS>MOLECULE
3cj2_ligand_058
    37    38
SMALL
GAST_HUCK
****
This file was generated by PARSER (from files_GN.cpp)

@<TRIPOS>ATOM
      1 BR1       -18.9598   10.9301  -14.4417 Br          1 SX3      -0.0605
      2 C11       -19.7734    9.3284  -14.9202 C.ar        1 SX3       0.0047
      3 C10       -21.1419    9.1249  -14.6777 C.ar        1 SX3      -0.0437
      4 C12       -19.0110    8.3216  -15.5309 C.ar        1 SX3      -0.0597
      5 C13       -19.6166    7.1134  -15.9111 C.ar        1 SX3      -0.0356
      6 C14       -20.9908    6.9001  -15.6755 C.ar        1 SX3       0.0599
      7 N2        -21.5281    5.7292  -16.0646 N.pl3       1 SX3      -0.3308
      8 C9        -21.7674    7.9120  -15.0501 C.ar        1 SX3       0.0698
      9 C8        -23.1200    7.7544  -14.7936 C.2         1 SX3       0.1999
     10 O1        -23.3671    7.5654  -13.6073 O.2         1 SX3      -0.3919
     11 N1        -24.1044    7.8428  -15.7096 N.am        1 SX3      -0.2741
     12 C6        -23.8696    8.0386  -17.1357 C.3         1 SX3       0.0356
     13 C4        -24.5096    6.8822  -17.9645 C.3         1 SX3      -0.0232
     14 C5        -24.2964    7.0717  -19.4906 C.3         1 SX3      -0.0606
     15 C3        -26.0197    6.7474  -17.6113 C.3         1 SX3      -0.0442
     16 C7        -25.5119    7.7813  -15.3348 C.3         1 SX3       0.0356
     17 C2        -26.2397    6.6213  -16.0746 C.3         1 SX3      -0.0232
     18 C1        -27.7480    6.5732  -15.7144 C.3         1 SX3      -0.0606
     19 H1        -21.6809    9.8724  -14.2324 H           1 SX3       0.0663
     20 H2        -18.0146    8.4708  -15.7082 H           1 SX3       0.0644
     21 H3        -19.0482    6.3894  -16.3615 H           1 SX3       0.0535
     22 H4        -20.9675    5.0529  -16.4816 H           1 SX3       0.1755
     23 H5        -22.4720    5.5514  -15.9280 H           1 SX3       0.1755
     24 H6        -22.8120    8.0979  -17.3993 H           1 SX3       0.0524
     25 H7        -24.3095    8.9931  -17.4376 H           1 SX3       0.0524
     26 H8        -24.0127    5.9496  -17.6810 H           1 SX3       0.0318
     27 H9        -24.7377    6.2371  -20.0380 H           1 SX3       0.0233
     28 H10       -23.2292    7.1070  -19.7219 H           1 SX3       0.0233
     29 H11       -24.7605    7.9993  -19.8324 H           1 SX3       0.0233
     30 H12       -26.4316    5.8663  -18.1081 H           1 SX3       0.0272
     31 H13       -26.5586    7.6268  -17.9832 H           1 SX3       0.0272
     32 H14       -25.9822    8.7342  -15.5954 H           1 SX3       0.0524
     33 H15       -25.6676    7.6489  -14.2600 H           1 SX3       0.0524
     34 H16       -25.7908    5.6781  -15.7434 H           1 SX3       0.0318
     35 H17       -28.2335    5.7420  -16.2318 H           1 SX3       0.0233
     36 H18       -28.2434    7.5021  -16.0010 H           1 SX3       0.0233
     37 H19       -27.8744    6.4257  -14.6393 H           1 SX3       0.0233
@<TRIPOS>BOND
     1     1     2   1
     2     2     3  ar
     3     2     4  ar
     4     3     8  ar
     5     4     5  ar
     6     5     6  ar
     7     6     7   1
     8     6     8  ar
     9     8     9   1
    10     9    10   2
    11     9    11  am
    12    11    12   1
    13    11    16   1
    14    12    13   1
    15    13    14   1
    16    13    15   1
    17    15    17   1
    18    16    17   1
    19    17    18   1
    20     3    19   1
    21     4    20   1
    22     5    21   1
    23     7    22   1
    24     7    23   1
    25    12    24   1
    26    12    25   1
    27    13    26   1
    28    14    27   1
    29    14    28   1
    30    14    29   1
    31    15    30   1
    32    15    31   1
    33    16    32   1
    34    16    33   1
    35    17    34   1
    36    18    35   1
    37    18    36   1
    38    18    37   1
@<TRIPOS>SUBSTRUCTURE
     1  SX3      2

