@<TRIPOS>MOLECULE
3cj2_ligand_069
    37    38
SMALL
GAST_HUCK
****
This file was generated by PARSER (from files_GN.cpp)

@<TRIPOS>ATOM
      1 BR1       -28.9734    7.3326  -18.4772 Br          1 SX3      -0.0605
      2 C11       -27.2803    6.5653  -18.3596 C.ar        1 SX3       0.0047
      3 C10       -26.4976    6.7639  -17.2076 C.ar        1 SX3      -0.0437
      4 C12       -26.7954    5.7831  -19.4144 C.ar        1 SX3      -0.0597
      5 C13       -25.5177    5.1965  -19.3278 C.ar        1 SX3      -0.0356
      6 C14       -24.7291    5.3837  -18.1776 C.ar        1 SX3       0.0599
      7 N2        -23.5102    4.8038  -18.1474 N.pl3       1 SX3      -0.3308
      8 C9        -25.2075    6.1892  -17.1127 C.ar        1 SX3       0.0698
      9 C8        -24.4578    6.4258  -15.9679 C.2         1 SX3       0.1999
     10 O1        -24.4833    5.4941  -15.1721 O.2         1 SX3      -0.3919
     11 N1        -23.7210    7.5279  -15.7379 N.am        1 SX3      -0.2741
     12 C6        -23.5422    8.5932  -16.7170 C.3         1 SX3       0.0356
     13 C4        -22.0475    8.7597  -17.1242 C.3         1 SX3      -0.0232
     14 C5        -21.5941    7.6873  -18.1513 C.3         1 SX3      -0.0606
     15 C3        -21.1375    8.8481  -15.8582 C.3         1 SX3      -0.0442
     16 C7        -22.9940    7.7325  -14.4915 C.3         1 SX3       0.0356
     17 C2        -21.4563    7.8150  -14.7310 C.3         1 SX3      -0.0232
     18 C1        -20.8319    6.4101  -14.9555 C.3         1 SX3      -0.0606
     19 H1        -26.8663    7.3435  -16.4479 H           1 SX3       0.0663
     20 H2        -27.3630    5.6308  -20.2490 H           1 SX3       0.0644
     21 H3        -25.1742    4.6279  -20.1039 H           1 SX3       0.0535
     22 H4        -23.1967    4.2853  -18.9028 H           1 SX3       0.1755
     23 H5        -22.9292    4.9391  -17.3863 H           1 SX3       0.1755
     24 H6        -23.8968    9.5283  -16.2771 H           1 SX3       0.0524
     25 H7        -24.1316    8.4611  -17.6254 H           1 SX3       0.0524
     26 H8        -21.9585    9.7182  -17.6453 H           1 SX3       0.0318
     27 H9        -20.5389    7.8038  -18.3870 H           1 SX3       0.0233
     28 H10       -22.1617    7.7749  -19.0780 H           1 SX3       0.0233
     29 H11       -21.7406    6.6866  -17.7704 H           1 SX3       0.0233
     30 H12       -21.2772    9.8466  -15.4317 H           1 SX3       0.0272
     31 H13       -20.0848    8.7816  -16.1466 H           1 SX3       0.0272
     32 H14       -23.1930    6.9654  -13.7372 H           1 SX3       0.0524
     33 H15       -23.3335    8.6743  -14.0519 H           1 SX3       0.0524
     34 H16       -21.0028    8.2008  -13.8105 H           1 SX3       0.0318
     35 H17       -19.7879    6.5022  -15.2592 H           1 SX3       0.0233
     36 H18       -21.3734    5.8374  -15.7058 H           1 SX3       0.0233
     37 H19       -20.8603    5.8328  -14.0312 H           1 SX3       0.0233
@<TRIPOS>BOND
     1     1     2   1
     2     2     3  ar
     3     2     4  ar
     4     3     8  ar
     5     4     5  ar
     6     5     6  ar
     7     6     7   1
     8     6     8  ar
     9     8     9   1
    10     9    10   2
    11     9    11  am
    12    11    12   1
    13    11    16   1
    14    12    13   1
    15    13    14   1
    16    13    15   1
    17    15    17   1
    18    16    17   1
    19    17    18   1
    20     3    19   1
    21     4    20   1
    22     5    21   1
    23     7    22   1
    24     7    23   1
    25    12    24   1
    26    12    25   1
    27    13    26   1
    28    14    27   1
    29    14    28   1
    30    14    29   1
    31    15    30   1
    32    15    31   1
    33    16    32   1
    34    16    33   1
    35    17    34   1
    36    18    35   1
    37    18    36   1
    38    18    37   1
@<TRIPOS>SUBSTRUCTURE
     1  SX3      2

