@<TRIPOS>MOLECULE
3cj2_ligand_077
    37    38
SMALL
GAST_HUCK
****
This file was generated by PARSER (from files_GN.cpp)

@<TRIPOS>ATOM
      1 BR1       -28.5794    4.1612  -12.0850 Br          1 SX3      -0.0605
      2 C11       -27.9983    3.6500  -13.7771 C.ar        1 SX3       0.0047
      3 C10       -27.1211    4.4783  -14.5005 C.ar        1 SX3      -0.0437
      4 C12       -28.4306    2.4324  -14.3297 C.ar        1 SX3      -0.0597
      5 C13       -27.9725    2.0349  -15.5976 C.ar        1 SX3      -0.0356
      6 C14       -27.0825    2.8527  -16.3252 C.ar        1 SX3       0.0599
      7 N2        -26.6373    2.3962  -17.5129 N.pl3       1 SX3      -0.3308
      8 C9        -26.6641    4.0994  -15.7863 C.ar        1 SX3       0.0698
      9 C8        -25.8040    4.9505  -16.4736 C.2         1 SX3       0.1999
     10 O1        -24.6991    5.0532  -15.9534 O.2         1 SX3      -0.3919
     11 N1        -26.1086    5.6245  -17.6021 N.am        1 SX3      -0.2741
     12 C6        -25.1219    6.4337  -18.3085 C.3         1 SX3       0.0356
     13 C4        -24.9675    5.9562  -19.7844 C.3         1 SX3      -0.0232
     14 C5        -23.9537    6.8267  -20.5738 C.3         1 SX3      -0.0606
     15 C3        -26.3563    5.9288  -20.4894 C.3         1 SX3      -0.0442
     16 C7        -27.4404    5.6421  -18.1954 C.3         1 SX3       0.0356
     17 C2        -27.4039    5.1243  -19.6646 C.3         1 SX3      -0.0232
     18 C1        -28.8060    5.1702  -20.3269 C.3         1 SX3      -0.0606
     19 H1        -26.8252    5.3654  -14.0835 H           1 SX3       0.0663
     20 H2        -29.0693    1.8287  -13.8072 H           1 SX3       0.0644
     21 H3        -28.2818    1.1376  -15.9809 H           1 SX3       0.0535
     22 H4        -26.9336    1.5315  -17.8411 H           1 SX3       0.1755
     23 H5        -26.0122    2.9220  -18.0375 H           1 SX3       0.1755
     24 H6        -24.1331    6.4116  -17.8437 H           1 SX3       0.0524
     25 H7        -25.4461    7.4789  -18.2935 H           1 SX3       0.0524
     26 H8        -24.5744    4.9337  -19.7643 H           1 SX3       0.0318
     27 H9        -23.8070    6.4194  -21.5765 H           1 SX3       0.0233
     28 H10       -22.9865    6.8424  -20.0676 H           1 SX3       0.0233
     29 H11       -24.3170    7.8522  -20.6633 H           1 SX3       0.0233
     30 H12       -26.2509    5.4739  -21.4791 H           1 SX3       0.0272
     31 H13       -26.7148    6.9545  -20.6250 H           1 SX3       0.0272
     32 H14       -27.8129    6.6715  -18.1821 H           1 SX3       0.0524
     33 H15       -28.1715    5.0503  -17.6408 H           1 SX3       0.0524
     34 H16       -27.0876    4.0767  -19.6466 H           1 SX3       0.0318
     35 H17       -28.7557    4.7799  -21.3459 H           1 SX3       0.0233
     36 H18       -29.1835    6.1945  -20.3632 H           1 SX3       0.0233
     37 H19       -29.5114    4.5572  -19.7616 H           1 SX3       0.0233
@<TRIPOS>BOND
     1     1     2   1
     2     2     3  ar
     3     2     4  ar
     4     3     8  ar
     5     4     5  ar
     6     5     6  ar
     7     6     7   1
     8     6     8  ar
     9     8     9   1
    10     9    10   2
    11     9    11  am
    12    11    12   1
    13    11    16   1
    14    12    13   1
    15    13    14   1
    16    13    15   1
    17    15    17   1
    18    16    17   1
    19    17    18   1
    20     3    19   1
    21     4    20   1
    22     5    21   1
    23     7    22   1
    24     7    23   1
    25    12    24   1
    26    12    25   1
    27    13    26   1
    28    14    27   1
    29    14    28   1
    30    14    29   1
    31    15    30   1
    32    15    31   1
    33    16    32   1
    34    16    33   1
    35    17    34   1
    36    18    35   1
    37    18    36   1
    38    18    37   1
@<TRIPOS>SUBSTRUCTURE
     1  SX3      2

