@<TRIPOS>MOLECULE
3cj2_ligand_060
    37    38
SMALL
GAST_HUCK
****
This file was generated by PARSER (from files_GN.cpp)

@<TRIPOS>ATOM
      1 BR1       -24.9093   11.2545  -16.0998 Br          1 SX3      -0.0605
      2 C11       -24.0680    9.6528  -15.6597 C.ar        1 SX3       0.0047
      3 C10       -24.7967    8.6302  -15.0264 C.ar        1 SX3      -0.0437
      4 C12       -22.7102    9.4628  -15.9631 C.ar        1 SX3      -0.0597
      5 C13       -22.0841    8.2473  -15.6370 C.ar        1 SX3      -0.0356
      6 C14       -22.8117    7.2133  -15.0084 C.ar        1 SX3       0.0599
      7 N2        -22.1539    6.0813  -14.6960 N.pl3       1 SX3      -0.3308
      8 C9        -24.1932    7.3877  -14.7151 C.ar        1 SX3       0.0698
      9 C8        -24.9660    6.3966  -14.0975 C.2         1 SX3       0.1999
     10 O1        -24.4991    5.9962  -13.0389 O.2         1 SX3      -0.3919
     11 N1        -26.1422    5.9107  -14.5465 N.am        1 SX3      -0.2741
     12 C6        -26.9458    4.9763  -13.7614 C.3         1 SX3       0.0356
     13 C4        -28.3795    5.5378  -13.5179 C.3         1 SX3      -0.0232
     14 C5        -29.2688    4.5268  -12.7526 C.3         1 SX3      -0.0606
     15 C3        -29.0374    5.9662  -14.8648 C.3         1 SX3      -0.0442
     16 C7        -26.7058    6.2222  -15.8542 C.3         1 SX3       0.0356
     17 C2        -28.1051    6.8919  -15.6974 C.3         1 SX3      -0.0232
     18 C1        -28.7372    7.2550  -17.0690 C.3         1 SX3      -0.0606
     19 H1        -25.7764    8.8037  -14.7895 H           1 SX3       0.0663
     20 H2        -22.1754   10.2098  -16.4180 H           1 SX3       0.0644
     21 H3        -21.0882    8.1264  -15.8620 H           1 SX3       0.0535
     22 H4        -21.2110    5.9768  -14.9094 H           1 SX3       0.1755
     23 H5        -22.6192    5.3681  -14.2381 H           1 SX3       0.1755
     24 H6        -26.5092    4.7440  -12.7858 H           1 SX3       0.0524
     25 H7        -27.0123    4.0253  -14.3022 H           1 SX3       0.0524
     26 H8        -28.2830    6.4337  -12.8900 H           1 SX3       0.0318
     27 H9        -30.2516    4.9591  -12.5567 H           1 SX3       0.0233
     28 H10       -28.8118    4.2678  -11.7959 H           1 SX3       0.0233
     29 H11       -29.3985    3.6131  -13.3375 H           1 SX3       0.0233
     30 H12       -29.9754    6.4895  -14.6580 H           1 SX3       0.0272
     31 H13       -29.2743    5.0722  -15.4509 H           1 SX3       0.0272
     32 H14       -26.8150    5.2931  -16.4219 H           1 SX3       0.0524
     33 H15       -26.0699    6.8683  -16.4571 H           1 SX3       0.0524
     34 H16       -27.9767    7.8295  -15.1423 H           1 SX3       0.0318
     35 H17       -29.6961    7.7590  -16.9222 H           1 SX3       0.0233
     36 H18       -28.9034    6.3550  -17.6680 H           1 SX3       0.0233
     37 H19       -28.0789    7.9276  -17.6232 H           1 SX3       0.0233
@<TRIPOS>BOND
     1     1     2   1
     2     2     3  ar
     3     2     4  ar
     4     3     8  ar
     5     4     5  ar
     6     5     6  ar
     7     6     7   1
     8     6     8  ar
     9     8     9   1
    10     9    10   2
    11     9    11  am
    12    11    12   1
    13    11    16   1
    14    12    13   1
    15    13    14   1
    16    13    15   1
    17    15    17   1
    18    16    17   1
    19    17    18   1
    20     3    19   1
    21     4    20   1
    22     5    21   1
    23     7    22   1
    24     7    23   1
    25    12    24   1
    26    12    25   1
    27    13    26   1
    28    14    27   1
    29    14    28   1
    30    14    29   1
    31    15    30   1
    32    15    31   1
    33    16    32   1
    34    16    33   1
    35    17    34   1
    36    18    35   1
    37    18    36   1
    38    18    37   1
@<TRIPOS>SUBSTRUCTURE
     1  SX3      2

