@<TRIPOS>MOLECULE
3cj2_ligand_048
    37    38
SMALL
GAST_HUCK
****
This file was generated by PARSER (from files_GN.cpp)

@<TRIPOS>ATOM
      1 BR1       -23.6910    3.2598  -21.2873 Br          1 SX3      -0.0605
      2 C11       -24.2436    4.9938  -20.8906 C.ar        1 SX3       0.0047
      3 C10       -24.0337    5.5153  -19.6022 C.ar        1 SX3      -0.0437
      4 C12       -24.8870    5.7765  -21.8691 C.ar        1 SX3      -0.0597
      5 C13       -25.3179    7.0767  -21.5525 C.ar        1 SX3      -0.0356
      6 C14       -25.1054    7.6056  -20.2639 C.ar        1 SX3       0.0599
      7 N2        -25.5532    8.8572  -20.0140 N.pl3       1 SX3      -0.3308
      8 C9        -24.4427    6.8299  -19.2740 C.ar        1 SX3       0.0698
      9 C8        -24.1965    7.3253  -17.9942 C.2         1 SX3       0.1999
     10 O1        -25.2098    7.4464  -17.3192 O.2         1 SX3      -0.3919
     11 N1        -22.9927    7.6966  -17.5143 N.am        1 SX3      -0.2741
     12 C6        -21.7554    7.6174  -18.2759 C.3         1 SX3       0.0356
     13 C4        -20.6763    6.7464  -17.5633 C.3         1 SX3      -0.0232
     14 C5        -20.9042    5.2243  -17.7559 C.3         1 SX3      -0.0606
     15 C3        -20.5223    7.1855  -16.0728 C.3         1 SX3      -0.0442
     16 C7        -22.8340    8.2867  -16.1892 C.3         1 SX3       0.0356
     17 C2        -21.8598    7.4521  -15.3069 C.3         1 SX3      -0.0232
     18 C1        -22.5463    6.1792  -14.7380 C.3         1 SX3      -0.0606
     19 H1        -23.5972    4.9172  -18.9024 H           1 SX3       0.0663
     20 H2        -25.0596    5.3937  -22.8007 H           1 SX3       0.0644
     21 H3        -25.7883    7.6311  -22.2699 H           1 SX3       0.0535
     22 H4        -25.9976    9.3619  -20.7120 H           1 SX3       0.1755
     23 H5        -25.4291    9.2585  -19.1420 H           1 SX3       0.1755
     24 H6        -21.3576    8.6320  -18.3817 H           1 SX3       0.0524
     25 H7        -21.8855    7.2508  -19.2967 H           1 SX3       0.0524
     26 H8        -19.7207    6.9502  -18.0583 H           1 SX3       0.0318
     27 H9        -20.0981    4.6549  -17.2908 H           1 SX3       0.0233
     28 H10       -20.9187    4.9771  -18.8189 H           1 SX3       0.0233
     29 H11       -21.8462    4.9112  -17.3213 H           1 SX3       0.0233
     30 H12       -19.9556    8.1226  -16.0711 H           1 SX3       0.0272
     31 H13       -19.9154    6.4615  -15.5266 H           1 SX3       0.0272
     32 H14       -23.7735    8.4145  -15.6446 H           1 SX3       0.0524
     33 H15       -22.4258    9.2974  -16.3046 H           1 SX3       0.0524
     34 H16       -21.6042    8.0643  -14.4318 H           1 SX3       0.0318
     35 H17       -21.8139    5.5444  -14.2403 H           1 SX3       0.0233
     36 H18       -23.0405    5.6068  -15.5199 H           1 SX3       0.0233
     37 H19       -23.3037    6.4605  -14.0033 H           1 SX3       0.0233
@<TRIPOS>BOND
     1     1     2   1
     2     2     3  ar
     3     2     4  ar
     4     3     8  ar
     5     4     5  ar
     6     5     6  ar
     7     6     7   1
     8     6     8  ar
     9     8     9   1
    10     9    10   2
    11     9    11  am
    12    11    12   1
    13    11    16   1
    14    12    13   1
    15    13    14   1
    16    13    15   1
    17    15    17   1
    18    16    17   1
    19    17    18   1
    20     3    19   1
    21     4    20   1
    22     5    21   1
    23     7    22   1
    24     7    23   1
    25    12    24   1
    26    12    25   1
    27    13    26   1
    28    14    27   1
    29    14    28   1
    30    14    29   1
    31    15    30   1
    32    15    31   1
    33    16    32   1
    34    16    33   1
    35    17    34   1
    36    18    35   1
    37    18    36   1
    38    18    37   1
@<TRIPOS>SUBSTRUCTURE
     1  SX3      2

