@<TRIPOS>MOLECULE
3cj2_ligand_085
    37    38
SMALL
GAST_HUCK
****
This file was generated by PARSER (from files_GN.cpp)

@<TRIPOS>ATOM
      1 BR1       -30.3206   13.1052  -19.1754 Br          1 SX3      -0.0605
      2 C11       -29.1888   14.4657  -19.7436 C.ar        1 SX3       0.0047
      3 C10       -29.6552   15.7924  -19.7850 C.ar        1 SX3      -0.0437
      4 C12       -27.8664   14.1765  -20.1150 C.ar        1 SX3      -0.0597
      5 C13       -27.0095   15.2100  -20.5306 C.ar        1 SX3      -0.0356
      6 C14       -27.4652   16.5437  -20.5840 C.ar        1 SX3       0.0599
      7 N2        -26.6061   17.4970  -20.9940 N.pl3       1 SX3      -0.3308
      8 C9        -28.8013   16.8417  -20.2092 C.ar        1 SX3       0.0698
      9 C8        -29.2966   18.1359  -20.2421 C.2         1 SX3       0.1999
     10 O1        -28.8973   18.8302  -19.3141 O.2         1 SX3      -0.3919
     11 N1        -30.0922   18.6326  -21.2075 N.am        1 SX3      -0.2741
     12 C6        -30.5761   20.0074  -21.1790 C.3         1 SX3       0.0356
     13 C4        -32.1306   20.0464  -21.1277 C.3         1 SX3      -0.0232
     14 C5        -32.6666   19.7115  -19.7029 C.3         1 SX3      -0.0606
     15 C3        -32.7309   19.1727  -22.2737 C.3         1 SX3      -0.0442
     16 C7        -30.5310   17.8622  -22.3645 C.3         1 SX3       0.0356
     17 C2        -32.0850   17.7654  -22.4568 C.3         1 SX3      -0.0232
     18 C1        -32.6814   16.6841  -21.5140 C.3         1 SX3      -0.0606
     19 H1        -30.6198   15.9944  -19.4996 H           1 SX3       0.0663
     20 H2        -27.5198   13.2145  -20.0722 H           1 SX3       0.0644
     21 H3        -26.0484   14.9887  -20.8015 H           1 SX3       0.0535
     22 H4        -25.6887   17.2619  -21.2062 H           1 SX3       0.1755
     23 H5        -26.8857   18.4233  -21.0399 H           1 SX3       0.1755
     24 H6        -30.2374   20.5180  -22.0839 H           1 SX3       0.0524
     25 H7        -30.1868   20.5973  -20.3493 H           1 SX3       0.0524
     26 H8        -32.4409   21.0774  -21.3231 H           1 SX3       0.0318
     27 H9        -33.7449   19.5459  -19.7250 H           1 SX3       0.0233
     28 H10       -32.4694   20.5477  -19.0288 H           1 SX3       0.0233
     29 H11       -32.1823   18.8302  -19.2871 H           1 SX3       0.0233
     30 H12       -32.5787   19.7203  -23.2100 H           1 SX3       0.0272
     31 H13       -33.8139   19.0778  -22.1472 H           1 SX3       0.0272
     32 H14       -30.1182   16.8502  -22.4045 H           1 SX3       0.0524
     33 H15       -30.1595   18.3610  -23.2640 H           1 SX3       0.0524
     34 H16       -32.3240   17.4286  -23.4711 H           1 SX3       0.0318
     35 H17       -33.7683   16.6321  -21.6363 H           1 SX3       0.0233
     36 H18       -32.4548   16.8918  -20.4680 H           1 SX3       0.0233
     37 H19       -32.2701   15.7003  -21.7577 H           1 SX3       0.0233
@<TRIPOS>BOND
     1     1     2   1
     2     2     3  ar
     3     2     4  ar
     4     3     8  ar
     5     4     5  ar
     6     5     6  ar
     7     6     7   1
     8     6     8  ar
     9     8     9   1
    10     9    10   2
    11     9    11  am
    12    11    12   1
    13    11    16   1
    14    12    13   1
    15    13    14   1
    16    13    15   1
    17    15    17   1
    18    16    17   1
    19    17    18   1
    20     3    19   1
    21     4    20   1
    22     5    21   1
    23     7    22   1
    24     7    23   1
    25    12    24   1
    26    12    25   1
    27    13    26   1
    28    14    27   1
    29    14    28   1
    30    14    29   1
    31    15    30   1
    32    15    31   1
    33    16    32   1
    34    16    33   1
    35    17    34   1
    36    18    35   1
    37    18    36   1
    38    18    37   1
@<TRIPOS>SUBSTRUCTURE
     1  SX3      2

