@<TRIPOS>MOLECULE
3cj2_ligand_086
    37    38
SMALL
GAST_HUCK
****
This file was generated by PARSER (from files_GN.cpp)

@<TRIPOS>ATOM
      1 BR1       -27.0640    0.8771  -17.6881 Br          1 SX3      -0.0605
      2 C11       -26.2101    2.5271  -17.8008 C.ar        1 SX3       0.0047
      3 C10       -25.7265    2.9719  -19.0404 C.ar        1 SX3      -0.0437
      4 C12       -26.0548    3.3248  -16.6534 C.ar        1 SX3      -0.0597
      5 C13       -25.4158    4.5733  -16.7507 C.ar        1 SX3      -0.0356
      6 C14       -24.9286    5.0362  -17.9873 C.ar        1 SX3       0.0599
      7 N2        -24.3184    6.2387  -18.0249 N.pl3       1 SX3      -0.3308
      8 C9        -25.0849    4.2365  -19.1505 C.ar        1 SX3       0.0698
      9 C8        -24.6172    4.6521  -20.3948 C.2         1 SX3       0.1999
     10 O1        -23.7028    3.9535  -20.8281 O.2         1 SX3      -0.3919
     11 N1        -25.1374    5.6549  -21.1356 N.am        1 SX3      -0.2741
     12 C6        -26.2268    6.5183  -20.6846 C.3         1 SX3       0.0356
     13 C4        -25.7756    8.0111  -20.7009 C.3         1 SX3      -0.0232
     14 C5        -26.9072    8.9637  -20.2384 C.3         1 SX3      -0.0606
     15 C3        -25.2491    8.3888  -22.1155 C.3         1 SX3      -0.0442
     16 C7        -24.6704    5.9316  -22.4876 C.3         1 SX3       0.0356
     17 C2        -24.1538    7.3931  -22.5992 C.3         1 SX3      -0.0232
     18 C1        -23.6894    7.7236  -24.0415 C.3         1 SX3      -0.0606
     19 H1        -25.8624    2.3820  -19.8707 H           1 SX3       0.0663
     20 H2        -26.4039    2.9995  -15.7536 H           1 SX3       0.0644
     21 H3        -25.3223    5.1515  -15.9131 H           1 SX3       0.0535
     22 H4        -24.2559    6.7743  -17.2251 H           1 SX3       0.1755
     23 H5        -23.9815    6.5874  -18.8636 H           1 SX3       0.1755
     24 H6        -26.5870    6.2805  -19.6820 H           1 SX3       0.0524
     25 H7        -27.0837    6.3844  -21.3512 H           1 SX3       0.0524
     26 H8        -24.9497    8.1349  -19.9971 H           1 SX3       0.0318
     27 H9        -26.5576    9.9975  -20.2444 H           1 SX3       0.0233
     28 H10       -27.2179    8.7171  -19.2217 H           1 SX3       0.0233
     29 H11       -27.7750    8.8840  -20.8977 H           1 SX3       0.0233
     30 H12       -24.8370    9.4012  -22.0925 H           1 SX3       0.0272
     31 H13       -26.0860    8.3844  -22.8263 H           1 SX3       0.0272
     32 H14       -25.4986    5.7821  -23.1820 H           1 SX3       0.0524
     33 H15       -23.8728    5.2651  -22.8164 H           1 SX3       0.0524
     34 H16       -23.2819    7.5016  -21.9457 H           1 SX3       0.0318
     35 H17       -23.3146    8.7501  -24.1008 H           1 SX3       0.0233
     36 H18       -24.5142    7.6145  -24.7507 H           1 SX3       0.0233
     37 H19       -22.8817    7.0510  -24.3419 H           1 SX3       0.0233
@<TRIPOS>BOND
     1     1     2   1
     2     2     3  ar
     3     2     4  ar
     4     3     8  ar
     5     4     5  ar
     6     5     6  ar
     7     6     7   1
     8     6     8  ar
     9     8     9   1
    10     9    10   2
    11     9    11  am
    12    11    12   1
    13    11    16   1
    14    12    13   1
    15    13    14   1
    16    13    15   1
    17    15    17   1
    18    16    17   1
    19    17    18   1
    20     3    19   1
    21     4    20   1
    22     5    21   1
    23     7    22   1
    24     7    23   1
    25    12    24   1
    26    12    25   1
    27    13    26   1
    28    14    27   1
    29    14    28   1
    30    14    29   1
    31    15    30   1
    32    15    31   1
    33    16    32   1
    34    16    33   1
    35    17    34   1
    36    18    35   1
    37    18    36   1
    38    18    37   1
@<TRIPOS>SUBSTRUCTURE
     1  SX3      2

