@<TRIPOS>MOLECULE
3coy_ligand_058
    57    59
SMALL
GAST_HUCK
****
This file was generated by PARSER (from files_GN.cpp)

@<TRIPOS>ATOM
      1 C1         20.1953    9.3363    2.9647 C.2         1 MOL       0.2465
      2 C2         13.6102    8.4987   -4.3743 C.ar        1 MOL       0.0533
      3 C3         21.1413    9.7997    1.9507 C.3         1 MOL       0.0714
      4 C4         14.5966    9.8631   -2.7181 C.ar        1 MOL       0.1613
      5 C5         15.3341   10.5274   -3.6974 C.ar        1 MOL       0.1045
      6 C6         15.2074   10.1342   -5.0418 C.ar        1 MOL       0.1298
      7 C7         20.4773   10.5340    0.6922 C.3         1 MOL       0.0226
      8 N1         14.3367    9.1339   -5.3377 N.ar        1 MOL      -0.2698
      9 N2         19.4225    8.2905    2.7283 N.am        1 MOL      -0.1294
     10 O1         20.0305   10.0312    3.9665 O.2         1 MOL      -0.3891
     11 C8         15.7568   11.4412   -1.8028 C.2         1 MOL       0.1123
     12 O2         12.2752    8.8892   -0.1982 O.3         1 MOL      -0.3836
     13 N3         13.7428    8.8625   -3.0692 N.ar        1 MOL      -0.2714
     14 C9         20.6612    9.6474   -0.5845 C.3         1 MOL      -0.0527
     15 C10        18.9340   10.8089    0.8240 C.3         1 MOL      -0.0527
     16 C11        21.1355   11.9220    0.3839 C.3         1 MOL      -0.0527
     17 N4         22.2080   10.5749    2.6260 N.4         1 MOL       0.2383
     18 S1         18.0743    7.8408    3.6456 S.o2        1 MOL       0.1859
     19 O1A        18.0833    8.5558    5.1804 O.2         1 MOL      -0.1218
     20 O2A        18.0518    6.1535    3.7211 O.2         1 MOL      -0.1218
     21 O5         16.7225    8.3217    2.7423 O.3         1 MOL      -0.2161
     22 C25        15.9276    9.4740    3.0741 C.3         1 MOL       0.1073
     23 C24        14.8365    9.7341    1.9959 C.3         1 MOL       0.1161
     24 C23        14.0053    8.5075    1.5356 C.3         1 MOL       0.1146
     25 O3         12.8594    8.2920    2.3695 O.3         1 MOL      -0.3864
     26 C22        13.6802    8.8249    0.0539 C.3         1 MOL       0.1385
     27 C21        14.3723   10.1867   -0.2143 C.3         1 MOL       0.2010
     28 O4         15.4171   10.2361    0.7770 O.3         1 MOL      -0.3367
     29 N9         14.8957   10.4320   -1.5329 N.pl3       1 MOL      -0.1919
     30 N7         16.0401   11.5037   -3.1096 N.2         1 MOL      -0.2958
     31 N6         15.9252   10.7100   -6.0171 N.pl3       1 MOL      -0.3152
     32 H1         12.9710    7.7452   -4.6279 H           1 MOL       0.0996
     33 H2         21.6818    8.9112    1.6025 H           1 MOL       0.1104
     34 H3         19.5232    7.8298    1.8812 H           1 MOL       0.2167
     35 H4         16.1469   12.0887   -1.1102 H           1 MOL       0.1349
     36 H5         12.2028    9.1388   -1.1418 H           1 MOL       0.2101
     37 H6         20.2124   10.1070   -1.4686 H           1 MOL       0.0238
     38 H7         20.1965    8.6685   -0.4414 H           1 MOL       0.0238
     39 H8         21.7219    9.4916   -0.7928 H           1 MOL       0.0238
     40 H9         18.7154   11.4185    1.7043 H           1 MOL       0.0238
     41 H10        18.3736    9.8763    0.8993 H           1 MOL       0.0238
     42 H11        18.5411   11.3413   -0.0511 H           1 MOL       0.0238
     43 H12        22.2029   11.8161    0.1870 H           1 MOL       0.0238
     44 H13        21.0046   12.6081    1.2247 H           1 MOL       0.0238
     45 H14        20.6875   12.3914   -0.4970 H           1 MOL       0.0238
     46 H15        22.6289   10.0063    3.3667 H           1 MOL       0.2015
     47 H16        21.8028   11.4198    3.0308 H           1 MOL       0.2015
     48 H17        22.9374   10.8357    1.9553 H           1 MOL       0.2015
     49 H18        16.5746   10.3668    3.1320 H           1 MOL       0.0611
     50 H19        15.4382    9.3333    4.0500 H           1 MOL       0.0611
     51 H20        14.1613   10.5043    2.3993 H           1 MOL       0.0648
     52 H21        14.6168    7.5990    1.5836 H           1 MOL       0.0648
     53 H22        12.2503    9.0330    2.1655 H           1 MOL       0.2100
     54 H23        14.1252    8.0383   -0.5657 H           1 MOL       0.0676
     55 H24        13.6588   10.9936    0.0021 H           1 MOL       0.0996
     56 H25        15.8156   10.4234   -6.9398 H           1 MOL       0.1820
     57 H26        16.6078   11.3638   -5.7985 H           1 MOL       0.1820
@<TRIPOS>BOND
     1     1     3   1
     2     9     1  am
     3     1    10   2
     4     2     8  ar
     5    13     2  ar
     6     3     7   1
     7     3    17   1
     8     4     5  ar
     9     4    13  ar
    10    29     4   1
    11     5     6  ar
    12    30     5   1
    13     6     8  ar
    14     6    31   1
    15     7    14   1
    16     7    15   1
    17     7    16   1
    18    18     9  am
    19    29    11   1
    20    11    30   2
    21    26    12   1
    22    18    19   2
    23    18    20   2
    24    21    18   1
    25    22    21   1
    26    23    22   1
    27    23    24   1
    28    28    23   1
    29    24    25   1
    30    26    24   1
    31    27    26   1
    32    27    28   1
    33    27    29   1
    34     2    32   1
    35     3    33   1
    36     9    34   1
    37    11    35   1
    38    12    36   1
    39    14    37   1
    40    14    38   1
    41    14    39   1
    42    15    40   1
    43    15    41   1
    44    15    42   1
    45    16    43   1
    46    16    44   1
    47    16    45   1
    48    17    46   1
    49    17    47   1
    50    17    48   1
    51    22    49   1
    52    22    50   1
    53    23    51   1
    54    24    52   1
    55    25    53   1
    56    26    54   1
    57    27    55   1
    58    31    56   1
    59    31    57   1
@<TRIPOS>SUBSTRUCTURE
     1  MOL      1

