@<TRIPOS>MOLECULE
3coy_ligand_052
    57    59
SMALL
GAST_HUCK
****
This file was generated by PARSER (from files_GN.cpp)

@<TRIPOS>ATOM
      1 C1         18.2052    8.3272    4.6582 C.2         1 MOL       0.2465
      2 C2         13.2076    9.0372   -4.2629 C.ar        1 MOL       0.0533
      3 C3         19.3291    7.5178    5.1255 C.3         1 MOL       0.0714
      4 C4         14.2172   10.6147   -2.8302 C.ar        1 MOL       0.1613
      5 C5         15.0893   10.9909   -3.8527 C.ar        1 MOL       0.1045
      6 C6         15.0052   10.3590   -5.1032 C.ar        1 MOL       0.1298
      7 C7         20.7154    8.2854    5.2296 C.3         1 MOL       0.0226
      8 N1         14.0392    9.4116   -5.2815 N.ar        1 MOL      -0.2698
      9 N2         18.0033    8.4647    3.3546 N.am        1 MOL      -0.1294
     10 O1         17.5097    8.9241    5.4725 O.2         1 MOL      -0.3891
     11 C8         15.5300   12.1800   -2.1271 C.2         1 MOL       0.1123
     12 O2         11.7762   12.1868    0.3107 O.3         1 MOL      -0.3836
     13 N3         13.2918    9.6382   -3.0422 N.ar        1 MOL      -0.2714
     14 C9         20.8252    9.4260    4.1583 C.3         1 MOL      -0.0527
     15 C10        20.9319    8.9147    6.6447 C.3         1 MOL      -0.0527
     16 C11        21.8906    7.2892    4.9522 C.3         1 MOL      -0.0527
     17 N4         18.9277    6.8448    6.3810 N.4         1 MOL       0.2383
     18 S1         16.7859    9.3776    2.6331 S.o2        1 MOL       0.1859
     19 O1A        17.1695    9.7388    1.0254 O.2         1 MOL      -0.1218
     20 O2A        16.5659   10.8023    3.5190 O.2         1 MOL      -0.1218
     21 O5         15.3339    8.5054    2.7502 O.3         1 MOL      -0.2161
     22 C25        14.2896    8.4107    1.7750 C.3         1 MOL       0.1073
     23 C24        13.8010    9.7981    1.2946 C.3         1 MOL       0.1161
     24 C23        12.4067    9.8151    0.6436 C.3         1 MOL       0.1146
     25 O3         11.3589    9.8093    1.6170 O.3         1 MOL      -0.3864
     26 C22        12.4488   11.0625   -0.2610 C.3         1 MOL       0.1385
     27 C21        13.9699   11.3235   -0.4236 C.3         1 MOL       0.2010
     28 O4         14.6591   10.2676    0.2519 O.3         1 MOL      -0.3367
     29 N9         14.4963   11.3852   -1.7589 N.pl3       1 MOL      -0.1919
     30 N7         15.9001   11.9554   -3.3962 N.2         1 MOL      -0.2958
     31 N6         15.8521   10.6758   -6.0960 N.pl3       1 MOL      -0.3152
     32 H1         12.5023    8.3128   -4.4251 H           1 MOL       0.0996
     33 H2         19.4612    6.7051    4.4057 H           1 MOL       0.1104
     34 H3         18.6115    8.0060    2.7523 H           1 MOL       0.2167
     35 H4         15.9990   12.8519   -1.5194 H           1 MOL       0.1349
     36 H5         12.1880   12.3242    1.1914 H           1 MOL       0.2101
     37 H6         21.8207    9.8777    4.1618 H           1 MOL       0.0238
     38 H7         20.1028   10.2232    4.3590 H           1 MOL       0.0238
     39 H8         20.6331    9.0347    3.1566 H           1 MOL       0.0238
     40 H9         21.0271    8.1385    7.4067 H           1 MOL       0.0238
     41 H10        20.0915    9.5542    6.9174 H           1 MOL       0.0238
     42 H11        21.8412    9.5185    6.6731 H           1 MOL       0.0238
     43 H12        21.8196    6.8741    3.9446 H           1 MOL       0.0238
     44 H13        21.8709    6.4593    5.6571 H           1 MOL       0.0238
     45 H14        22.8601    7.7850    5.0434 H           1 MOL       0.0238
     46 H15        18.0037    6.4186    6.2705 H           1 MOL       0.2015
     47 H16        18.8842    7.5280    7.1446 H           1 MOL       0.2015
     48 H17        19.5976    6.1148    6.6161 H           1 MOL       0.2015
     49 H18        13.4601    7.8772    2.2442 H           1 MOL       0.0611
     50 H19        14.6401    7.8155    0.9256 H           1 MOL       0.0611
     51 H20        13.8253   10.4985    2.1385 H           1 MOL       0.0648
     52 H21        12.2934    8.9331    0.0087 H           1 MOL       0.0648
     53 H22        11.6069   10.4846    2.2860 H           1 MOL       0.2100
     54 H23        11.9669   10.8552   -1.2212 H           1 MOL       0.0676
     55 H24        14.2236   12.2414    0.1145 H           1 MOL       0.0996
     56 H25        15.7661   10.2755   -6.9752 H           1 MOL       0.1820
     57 H26        16.5956   11.2730   -5.9154 H           1 MOL       0.1820
@<TRIPOS>BOND
     1     1     3   1
     2     9     1  am
     3     1    10   2
     4     2     8  ar
     5    13     2  ar
     6     3     7   1
     7     3    17   1
     8     4     5  ar
     9     4    13  ar
    10    29     4   1
    11     5     6  ar
    12    30     5   1
    13     6     8  ar
    14     6    31   1
    15     7    14   1
    16     7    15   1
    17     7    16   1
    18    18     9  am
    19    29    11   1
    20    11    30   2
    21    26    12   1
    22    18    19   2
    23    18    20   2
    24    21    18   1
    25    22    21   1
    26    23    22   1
    27    23    24   1
    28    28    23   1
    29    24    25   1
    30    26    24   1
    31    27    26   1
    32    27    28   1
    33    27    29   1
    34     2    32   1
    35     3    33   1
    36     9    34   1
    37    11    35   1
    38    12    36   1
    39    14    37   1
    40    14    38   1
    41    14    39   1
    42    15    40   1
    43    15    41   1
    44    15    42   1
    45    16    43   1
    46    16    44   1
    47    16    45   1
    48    17    46   1
    49    17    47   1
    50    17    48   1
    51    22    49   1
    52    22    50   1
    53    23    51   1
    54    24    52   1
    55    25    53   1
    56    26    54   1
    57    27    55   1
    58    31    56   1
    59    31    57   1
@<TRIPOS>SUBSTRUCTURE
     1  MOL      1

