@<TRIPOS>MOLECULE
3coy_ligand_082
    57    59
SMALL
GAST_HUCK
****
This file was generated by PARSER (from files_GN.cpp)

@<TRIPOS>ATOM
      1 C1         16.1449    9.6294    5.4692 C.2         1 MOL       0.2465
      2 C2         21.9228   10.8340    4.6729 C.ar        1 MOL       0.0533
      3 C3         15.6828    9.3821    6.8373 C.3         1 MOL       0.0714
      4 C4         21.3056    9.7794    2.6534 C.ar        1 MOL       0.1613
      5 C5         21.7828    8.5613    3.1362 C.ar        1 MOL       0.1045
      6 C6         22.3465    8.5054    4.4237 C.ar        1 MOL       0.1298
      7 C7         14.1059    9.4212    7.0239 C.3         1 MOL       0.0226
      8 N1         22.3936    9.6534    5.1568 N.ar        1 MOL      -0.2698
      9 N2         16.8145   10.7280    5.1569 N.am        1 MOL      -0.1294
     10 O1         15.9022    8.7882    4.6131 O.2         1 MOL      -0.3891
     11 C8         20.9702    8.2544    1.1735 C.2         1 MOL       0.1123
     12 O2         20.3046    9.7755   -1.7447 O.3         1 MOL      -0.3836
     13 N3         21.3818   10.8956    3.4241 N.ar        1 MOL      -0.2714
     14 C9         13.3214    8.7978    5.8224 C.3         1 MOL      -0.0527
     15 C10        13.6840    8.6525    8.3203 C.3         1 MOL      -0.0527
     16 C11        13.6554   10.9142    7.1858 C.3         1 MOL      -0.0527
     17 N4         16.3419    8.1436    7.3105 N.4         1 MOL       0.2383
     18 S1         17.6170   10.9590    3.6905 S.o2        1 MOL       0.1859
     19 O1A        18.5165    9.5823    3.2964 O.2         1 MOL      -0.1218
     20 O2A        18.6071   12.3205    3.8415 O.2         1 MOL      -0.1218
     21 O5         16.5246   11.2617    2.4296 O.3         1 MOL      -0.2161
     22 C25        16.8033   10.9795    1.0501 C.3         1 MOL       0.1073
     23 C24        18.0817   11.6729    0.5020 C.3         1 MOL       0.1161
     24 C23        18.4470   11.2351   -0.9371 C.3         1 MOL       0.1146
     25 O3         19.0877   12.3050   -1.6350 O.3         1 MOL      -0.3864
     26 C22        19.4232   10.0775   -0.6663 C.3         1 MOL       0.1385
     27 C21        20.1812   10.5768    0.5886 C.3         1 MOL       0.2010
     28 O4         19.2204   11.3586    1.3233 O.3         1 MOL      -0.3367
     29 N9         20.7820    9.5692    1.4301 N.pl3       1 MOL      -0.1919
     30 N7         21.5736    7.6262    2.2011 N.2         1 MOL      -0.2958
     31 N6         22.8160    7.3611    4.9398 N.pl3       1 MOL      -0.3152
     32 H1         21.9706   11.6710    5.2555 H           1 MOL       0.0996
     33 H2         16.1016   10.1518    7.4944 H           1 MOL       0.1104
     34 H3         16.9390   11.3976    5.8468 H           1 MOL       0.2167
     35 H4         20.7028    7.7684    0.3154 H           1 MOL       0.1349
     36 H5         20.5927   10.6435   -2.0921 H           1 MOL       0.2101
     37 H6         12.2504    8.7393    6.0370 H           1 MOL       0.0238
     38 H7         13.6810    7.7898    5.6083 H           1 MOL       0.0238
     39 H8         13.4344    9.4014    4.9232 H           1 MOL       0.0238
     40 H9         14.2587    8.9933    9.1844 H           1 MOL       0.0238
     41 H10        13.8429    7.5774    8.2085 H           1 MOL       0.0238
     42 H11        12.6222    8.7995    8.5431 H           1 MOL       0.0238
     43 H12        13.9105   11.4947    6.3006 H           1 MOL       0.0238
     44 H13        14.1394   11.3785    8.0449 H           1 MOL       0.0238
     45 H14        12.5786   10.9839    7.3348 H           1 MOL       0.0238
     46 H15        17.3430    8.3258    7.4509 H           1 MOL       0.2015
     47 H16        16.2292    7.3951    6.6248 H           1 MOL       0.2015
     48 H17        15.9507    7.8354    8.2028 H           1 MOL       0.2015
     49 H18        15.9411   11.3254    0.4745 H           1 MOL       0.0611
     50 H19        16.8668    9.8960    0.9177 H           1 MOL       0.0611
     51 H20        17.9262   12.7534    0.5379 H           1 MOL       0.0648
     52 H21        17.5839   10.9020   -1.5237 H           1 MOL       0.0648
     53 H22        18.3644   12.8383   -2.0306 H           1 MOL       0.2100
     54 H23        18.8495    9.1703   -0.4495 H           1 MOL       0.0676
     55 H24        20.9775   11.2597    0.2758 H           1 MOL       0.0996
     56 H25        23.1881    7.3483    5.8345 H           1 MOL       0.1820
     57 H26        22.7830    6.5402    4.4224 H           1 MOL       0.1820
@<TRIPOS>BOND
     1     1     3   1
     2     9     1  am
     3     1    10   2
     4     2     8  ar
     5    13     2  ar
     6     3     7   1
     7     3    17   1
     8     4     5  ar
     9     4    13  ar
    10    29     4   1
    11     5     6  ar
    12    30     5   1
    13     6     8  ar
    14     6    31   1
    15     7    14   1
    16     7    15   1
    17     7    16   1
    18    18     9  am
    19    29    11   1
    20    11    30   2
    21    26    12   1
    22    18    19   2
    23    18    20   2
    24    21    18   1
    25    22    21   1
    26    23    22   1
    27    23    24   1
    28    28    23   1
    29    24    25   1
    30    26    24   1
    31    27    26   1
    32    27    28   1
    33    27    29   1
    34     2    32   1
    35     3    33   1
    36     9    34   1
    37    11    35   1
    38    12    36   1
    39    14    37   1
    40    14    38   1
    41    14    39   1
    42    15    40   1
    43    15    41   1
    44    15    42   1
    45    16    43   1
    46    16    44   1
    47    16    45   1
    48    17    46   1
    49    17    47   1
    50    17    48   1
    51    22    49   1
    52    22    50   1
    53    23    51   1
    54    24    52   1
    55    25    53   1
    56    26    54   1
    57    27    55   1
    58    31    56   1
    59    31    57   1
@<TRIPOS>SUBSTRUCTURE
     1  MOL      1

