@<TRIPOS>MOLECULE
3coy_ligand_017
    57    59
SMALL
GAST_HUCK
****
This file was generated by PARSER (from files_GN.cpp)

@<TRIPOS>ATOM
      1 C1         18.0194   10.9738    0.0261 C.2         1 MOL       0.2465
      2 C2         14.9944   11.4167   11.9100 C.ar        1 MOL       0.0533
      3 C3         17.7569   10.7997   -1.4055 C.3         1 MOL       0.0714
      4 C4         14.5397   11.3002    9.6076 C.ar        1 MOL       0.1613
      5 C5         13.3332   11.9708    9.7899 C.ar        1 MOL       0.1045
      6 C6         12.9753   12.3761   11.0874 C.ar        1 MOL       0.1298
      7 C7         16.2184   10.8033   -1.7871 C.3         1 MOL       0.0226
      8 N1         13.8204   12.0779   12.1102 N.ar        1 MOL      -0.2698
      9 N2         18.0241    9.9188    0.8244 N.am        1 MOL      -0.1294
     10 O1         18.1847   12.1029    0.4774 O.2         1 MOL      -0.3891
     11 C8         13.5366   11.4943    7.7054 C.2         1 MOL       0.1123
     12 O2         15.5561    8.0118    8.4248 O.3         1 MOL      -0.3836
     13 N3         15.3579   11.0286   10.6587 N.ar        1 MOL      -0.2714
     14 C9         15.4689   12.0229   -1.1553 C.3         1 MOL      -0.0527
     15 C10        16.0151   10.8612   -3.3411 C.3         1 MOL      -0.0527
     16 C11        15.5342    9.4947   -1.2633 C.3         1 MOL      -0.0527
     17 N4         18.5492   11.7789   -2.1797 N.4         1 MOL       0.2383
     18 S1         18.1878    9.9745    2.5004 S.o2        1 MOL       0.1859
     19 O1A        19.5236   10.9436    2.8590 O.2         1 MOL      -0.1218
     20 O2A        18.3503    8.4108    3.1187 O.2         1 MOL      -0.1218
     21 O5         16.8359   10.7669    3.1502 O.3         1 MOL      -0.2161
     22 C25        15.9330   10.1940    4.0992 C.3         1 MOL       0.1073
     23 C24        16.5943    9.9880    5.5002 C.3         1 MOL       0.1161
     24 C23        16.3792    8.5904    6.1441 C.3         1 MOL       0.1146
     25 O3         17.6163    8.0371    6.6106 O.3         1 MOL      -0.3864
     26 C22        15.4034    8.8796    7.2979 C.3         1 MOL       0.1385
     27 C21        15.7437   10.3339    7.6570 C.3         1 MOL       0.2010
     28 O4         16.0808   10.9685    6.4171 O.3         1 MOL      -0.3367
     29 N9         14.6548   11.0191    8.2979 N.pl3       1 MOL      -0.1919
     30 N7         12.7219   12.0880    8.6004 N.2         1 MOL      -0.2958
     31 N6         11.8317   13.0329   11.3406 N.pl3       1 MOL      -0.3152
     32 H1         15.5979   11.2069   12.7046 H           1 MOL       0.0996
     33 H2         18.1719    9.8340   -1.7102 H           1 MOL       0.1104
     34 H3         17.8743    9.0488    0.4289 H           1 MOL       0.2167
     35 H4         13.3290   11.4340    6.7051 H           1 MOL       0.1349
     36 H5         15.2949    7.1282    8.0893 H           1 MOL       0.2101
     37 H6         14.4274   12.0661   -1.4863 H           1 MOL       0.0238
     38 H7         15.9559   12.9626   -1.4280 H           1 MOL       0.0238
     39 H8         15.4628   11.9443   -0.0644 H           1 MOL       0.0238
     40 H9         16.5666   10.0568   -3.8300 H           1 MOL       0.0238
     41 H10        16.3656   11.8117   -3.7481 H           1 MOL       0.0238
     42 H11        14.9590   10.7604   -3.6056 H           1 MOL       0.0238
     43 H12        15.5645    9.4435   -0.1722 H           1 MOL       0.0238
     44 H13        16.0402    8.6113   -1.6597 H           1 MOL       0.0238
     45 H14        14.4838    9.4516   -1.5641 H           1 MOL       0.0238
     46 H15        19.5264   11.7453   -1.8785 H           1 MOL       0.2015
     47 H16        18.1878   12.7263   -2.0473 H           1 MOL       0.2015
     48 H17        18.5048   11.5391   -3.1717 H           1 MOL       0.2015
     49 H18        15.5491    9.2620    3.6777 H           1 MOL       0.0611
     50 H19        15.0894   10.8801    4.1837 H           1 MOL       0.0611
     51 H20        17.6669   10.1682    5.4083 H           1 MOL       0.0648
     52 H21        15.9470    7.8636    5.4552 H           1 MOL       0.0648
     53 H22        17.9206    8.6258    7.3376 H           1 MOL       0.2100
     54 H23        14.3750    8.8062    6.9290 H           1 MOL       0.0676
     55 H24        16.6301   10.3410    8.3032 H           1 MOL       0.0996
     56 H25        11.6171   13.2918   12.2487 H           1 MOL       0.1820
     57 H26        11.2209   13.2419   10.6189 H           1 MOL       0.1820
@<TRIPOS>BOND
     1     1     3   1
     2     9     1  am
     3     1    10   2
     4     2     8  ar
     5    13     2  ar
     6     3     7   1
     7     3    17   1
     8     4     5  ar
     9     4    13  ar
    10    29     4   1
    11     5     6  ar
    12    30     5   1
    13     6     8  ar
    14     6    31   1
    15     7    14   1
    16     7    15   1
    17     7    16   1
    18    18     9  am
    19    29    11   1
    20    11    30   2
    21    26    12   1
    22    18    19   2
    23    18    20   2
    24    21    18   1
    25    22    21   1
    26    23    22   1
    27    23    24   1
    28    28    23   1
    29    24    25   1
    30    26    24   1
    31    27    26   1
    32    27    28   1
    33    27    29   1
    34     2    32   1
    35     3    33   1
    36     9    34   1
    37    11    35   1
    38    12    36   1
    39    14    37   1
    40    14    38   1
    41    14    39   1
    42    15    40   1
    43    15    41   1
    44    15    42   1
    45    16    43   1
    46    16    44   1
    47    16    45   1
    48    17    46   1
    49    17    47   1
    50    17    48   1
    51    22    49   1
    52    22    50   1
    53    23    51   1
    54    24    52   1
    55    25    53   1
    56    26    54   1
    57    27    55   1
    58    31    56   1
    59    31    57   1
@<TRIPOS>SUBSTRUCTURE
     1  MOL      1

