@<TRIPOS>MOLECULE
3coy_ligand_072
    57    59
SMALL
GAST_HUCK
****
This file was generated by PARSER (from files_GN.cpp)

@<TRIPOS>ATOM
      1 C1         17.1519    9.2289    5.4943 C.2         1 MOL       0.2465
      2 C2         21.7603   10.8533    4.5586 C.ar        1 MOL       0.0533
      3 C3         16.1937    9.4631    6.5736 C.3         1 MOL       0.0714
      4 C4         21.4106   12.0314    2.5496 C.ar        1 MOL       0.1613
      5 C5         22.7392   12.4467    2.5480 C.ar        1 MOL       0.1045
      6 C6         23.5917   12.0245    3.5824 C.ar        1 MOL       0.1298
      7 C7         14.6984    9.7976    6.1486 C.3         1 MOL       0.0226
      8 N1         23.0690   11.2409    4.5641 N.ar        1 MOL      -0.2698
      9 N2         17.3670    8.0178    5.0167 N.am        1 MOL      -0.1294
     10 O1         17.7158   10.2026    4.9867 O.2         1 MOL      -0.3891
     11 C8         21.7648   13.3013    0.8447 C.2         1 MOL       0.1123
     12 O2         19.4434   12.7579   -1.4234 O.3         1 MOL      -0.3836
     13 N3         20.9358   11.2435    3.5509 N.ar        1 MOL      -0.2714
     14 C9         13.7512    8.5547    6.2458 C.3         1 MOL      -0.0527
     15 C10        14.1255   10.8994    7.1044 C.3         1 MOL      -0.0527
     16 C11        14.6073   10.3600    4.6894 C.3         1 MOL      -0.0527
     17 N4         16.2741    8.3428    7.5320 N.4         1 MOL       0.2383
     18 S1         18.4399    7.6502    3.7639 S.o2        1 MOL       0.1859
     19 O1A        18.3546    5.9816    3.4851 O.2         1 MOL      -0.1218
     20 O2A        20.0218    8.1160    4.1491 O.2         1 MOL      -0.1218
     21 O5         17.9070    8.4630    2.3770 O.3         1 MOL      -0.2161
     22 C25        18.6842    9.2293    1.4538 C.3         1 MOL       0.1073
     23 C24        17.9838   10.5845    1.1454 C.3         1 MOL       0.1161
     24 C23        18.0305   11.0290   -0.3341 C.3         1 MOL       0.1146
     25 O3         16.9217   11.8709   -0.6577 O.3         1 MOL      -0.3864
     26 C22        19.3606   11.7808   -0.3837 C.3         1 MOL       0.1385
     27 C21        19.4556   12.4183    1.0203 C.3         1 MOL       0.2010
     28 O4         18.6236   11.6348    1.8984 O.3         1 MOL      -0.3367
     29 N9         20.8147   12.5623    1.4647 N.pl3       1 MOL      -0.1919
     30 N7         22.9450   13.2338    1.4839 N.2         1 MOL      -0.2958
     31 N6         24.8875   12.3687    3.6079 N.pl3       1 MOL      -0.3152
     32 H1         21.4026   10.2661    5.3116 H           1 MOL       0.0996
     33 H2         16.5794   10.3155    7.1446 H           1 MOL       0.1104
     34 H3         16.9046    7.2748    5.4297 H           1 MOL       0.2167
     35 H4         21.6195   13.8398   -0.0129 H           1 MOL       0.1349
     36 H5         18.5255   13.0342   -1.6378 H           1 MOL       0.2101
     37 H6         12.7428    8.7869    5.8856 H           1 MOL       0.0238
     38 H7         13.6523    8.2109    7.2792 H           1 MOL       0.0238
     39 H8         14.1391    7.7272    5.6526 H           1 MOL       0.0238
     40 H9         14.6941   11.8277    7.0110 H           1 MOL       0.0238
     41 H10        14.1802   10.5750    8.1462 H           1 MOL       0.0238
     42 H11        13.0792   11.1271    6.8751 H           1 MOL       0.0238
     43 H12        14.9103    9.6039    3.9626 H           1 MOL       0.0238
     44 H13        15.2591   11.2277    4.5722 H           1 MOL       0.0238
     45 H14        13.5869   10.6685    4.4397 H           1 MOL       0.0238
     46 H15        17.2222    8.2751    7.9105 H           1 MOL       0.2015
     47 H16        16.0386    7.4696    7.0602 H           1 MOL       0.2015
     48 H17        15.6135    8.5008    8.2940 H           1 MOL       0.2015
     49 H18        18.7764    8.6342    0.5501 H           1 MOL       0.0611
     50 H19        19.6946    9.3972    1.8255 H           1 MOL       0.0611
     51 H20        16.9358   10.5184    1.4561 H           1 MOL       0.0648
     52 H21        18.0238   10.1872   -1.0253 H           1 MOL       0.0648
     53 H22        16.8407   12.5227    0.0714 H           1 MOL       0.2100
     54 H23        20.1758   11.0626   -0.5286 H           1 MOL       0.0676
     55 H24        19.0047   13.4133    0.9884 H           1 MOL       0.0996
     56 H25        25.4559   12.0566    4.3261 H           1 MOL       0.1820
     57 H26        25.2601   12.9169    2.8990 H           1 MOL       0.1820
@<TRIPOS>BOND
     1     1     3   1
     2     9     1  am
     3     1    10   2
     4     2     8  ar
     5    13     2  ar
     6     3     7   1
     7     3    17   1
     8     4     5  ar
     9     4    13  ar
    10    29     4   1
    11     5     6  ar
    12    30     5   1
    13     6     8  ar
    14     6    31   1
    15     7    14   1
    16     7    15   1
    17     7    16   1
    18    18     9  am
    19    29    11   1
    20    11    30   2
    21    26    12   1
    22    18    19   2
    23    18    20   2
    24    21    18   1
    25    22    21   1
    26    23    22   1
    27    23    24   1
    28    28    23   1
    29    24    25   1
    30    26    24   1
    31    27    26   1
    32    27    28   1
    33    27    29   1
    34     2    32   1
    35     3    33   1
    36     9    34   1
    37    11    35   1
    38    12    36   1
    39    14    37   1
    40    14    38   1
    41    14    39   1
    42    15    40   1
    43    15    41   1
    44    15    42   1
    45    16    43   1
    46    16    44   1
    47    16    45   1
    48    17    46   1
    49    17    47   1
    50    17    48   1
    51    22    49   1
    52    22    50   1
    53    23    51   1
    54    24    52   1
    55    25    53   1
    56    26    54   1
    57    27    55   1
    58    31    56   1
    59    31    57   1
@<TRIPOS>SUBSTRUCTURE
     1  MOL      1

