@<TRIPOS>MOLECULE
3coy_ligand_021
    57    59
SMALL
GAST_HUCK
****
This file was generated by PARSER (from files_GN.cpp)

@<TRIPOS>ATOM
      1 C1         19.0983    6.6520    4.4483 C.2         1 MOL       0.2465
      2 C2         13.4183    8.6786   -4.4118 C.ar        1 MOL       0.0533
      3 C3         19.5711    5.3494    3.9945 C.3         1 MOL       0.0714
      4 C4         14.3584   10.0913   -2.7782 C.ar        1 MOL       0.1613
      5 C5         15.2142   10.6442   -3.7321 C.ar        1 MOL       0.1045
      6 C6         15.1565   10.1752   -5.0566 C.ar        1 MOL       0.1298
      7 C7         21.1292    5.1890    3.6814 C.3         1 MOL       0.0226
      8 N1         14.2506    9.2064   -5.3565 N.ar        1 MOL      -0.2698
      9 N2         17.9559    7.1611    4.0000 N.am        1 MOL      -0.1294
     10 O1         19.6658    7.1939    5.3972 O.2         1 MOL      -0.3891
     11 C8         15.5871   11.6082   -1.8508 C.2         1 MOL       0.1123
     12 O2         12.1431    8.8789   -0.0790 O.3         1 MOL      -0.3836
     13 N3         13.4703    9.1198   -3.1269 N.ar        1 MOL      -0.2714
     14 C9         22.0714    6.1622    4.4744 C.3         1 MOL      -0.0527
     15 C10        21.6299    3.7336    3.9925 C.3         1 MOL      -0.0527
     16 C11        21.3887    5.4485    2.1579 C.3         1 MOL      -0.0527
     17 N4         19.0348    4.3870    4.9789 N.4         1 MOL       0.2383
     18 S1         17.2930    8.6362    4.4740 S.o2        1 MOL       0.1859
     19 O1A        18.4444    9.8768    4.3285 O.2         1 MOL      -0.1218
     20 O2A        16.8711    8.4974    6.1084 O.2         1 MOL      -0.1218
     21 O5         15.8959    8.9647    3.5748 O.3         1 MOL      -0.2161
     22 C25        15.6061   10.2430    2.9883 C.3         1 MOL       0.1073
     23 C24        14.4538   10.1784    1.9426 C.3         1 MOL       0.1161
     24 C23        14.0924    8.7693    1.4298 C.3         1 MOL       0.1146
     25 O3         13.1591    8.1220    2.3001 O.3         1 MOL      -0.3864
     26 C22        13.5628    9.0240    0.0060 C.3         1 MOL       0.1385
     27 C21        13.9844   10.4865   -0.3187 C.3         1 MOL       0.2010
     28 O4         14.8428   10.8882    0.7619 O.3         1 MOL      -0.3367
     29 N9         14.6259   10.6865   -1.5983 N.pl3       1 MOL      -0.1919
     30 N7         15.9577   11.5886   -3.1413 N.2         1 MOL      -0.2958
     31 N6         15.9754   10.6494   -6.0089 N.pl3       1 MOL      -0.3152
     32 H1         12.7570    7.9441   -4.6701 H           1 MOL       0.0996
     33 H2         19.0265    5.0899    3.0760 H           1 MOL       0.1104
     34 H3         17.4656    6.6467    3.3309 H           1 MOL       0.2167
     35 H4         15.9856   12.2544   -1.1666 H           1 MOL       0.1349
     36 H5         11.9224    9.1095   -1.0061 H           1 MOL       0.2101
     37 H6         23.1250    5.9494    4.2554 H           1 MOL       0.0238
     38 H7         21.9316    6.0627    5.5508 H           1 MOL       0.0238
     39 H8         21.8891    7.1999    4.1919 H           1 MOL       0.0238
     40 H9         21.0284    2.9926    3.4584 H           1 MOL       0.0238
     41 H10        21.5602    3.5224    5.0660 H           1 MOL       0.0238
     42 H11        22.6743    3.5961    3.6979 H           1 MOL       0.0238
     43 H12        21.0331    6.4405    1.8732 H           1 MOL       0.0238
     44 H13        20.8635    4.7089    1.5493 H           1 MOL       0.0238
     45 H14        22.4523    5.3866    1.9149 H           1 MOL       0.0238
     46 H15        18.0379    4.5731    5.1275 H           1 MOL       0.2015
     47 H16        19.5298    4.4775    5.8696 H           1 MOL       0.2015
     48 H17        19.1439    3.4389    4.6167 H           1 MOL       0.2015
     49 H18        16.5138   10.6108    2.5008 H           1 MOL       0.0611
     50 H19        15.3491   10.9511    3.7820 H           1 MOL       0.0611
     51 H20        13.5591   10.6570    2.3557 H           1 MOL       0.0648
     52 H21        14.9976    8.1511    1.3646 H           1 MOL       0.0648
     53 H22        13.0777    7.2048    1.9600 H           1 MOL       0.2100
     54 H23        14.0249    8.3014   -0.6748 H           1 MOL       0.0676
     55 H24        13.1033   11.1388   -0.2912 H           1 MOL       0.0996
     56 H25        15.9075   10.3210   -6.9191 H           1 MOL       0.1820
     57 H26        16.6648   11.2911   -5.7801 H           1 MOL       0.1820
@<TRIPOS>BOND
     1     1     3   1
     2     9     1  am
     3     1    10   2
     4     2     8  ar
     5    13     2  ar
     6     3     7   1
     7     3    17   1
     8     4     5  ar
     9     4    13  ar
    10    29     4   1
    11     5     6  ar
    12    30     5   1
    13     6     8  ar
    14     6    31   1
    15     7    14   1
    16     7    15   1
    17     7    16   1
    18    18     9  am
    19    29    11   1
    20    11    30   2
    21    26    12   1
    22    18    19   2
    23    18    20   2
    24    21    18   1
    25    22    21   1
    26    23    22   1
    27    23    24   1
    28    28    23   1
    29    24    25   1
    30    26    24   1
    31    27    26   1
    32    27    28   1
    33    27    29   1
    34     2    32   1
    35     3    33   1
    36     9    34   1
    37    11    35   1
    38    12    36   1
    39    14    37   1
    40    14    38   1
    41    14    39   1
    42    15    40   1
    43    15    41   1
    44    15    42   1
    45    16    43   1
    46    16    44   1
    47    16    45   1
    48    17    46   1
    49    17    47   1
    50    17    48   1
    51    22    49   1
    52    22    50   1
    53    23    51   1
    54    24    52   1
    55    25    53   1
    56    26    54   1
    57    27    55   1
    58    31    56   1
    59    31    57   1
@<TRIPOS>SUBSTRUCTURE
     1  MOL      1

