@<TRIPOS>MOLECULE
3coy_ligand_051
    57    59
SMALL
GAST_HUCK
****
This file was generated by PARSER (from files_GN.cpp)

@<TRIPOS>ATOM
      1 C1         13.9297    9.3371    3.5622 C.2         1 MOL       0.2465
      2 C2         21.8526   13.4051    1.0294 C.ar        1 MOL       0.0533
      3 C3         14.0768    9.2433    5.0153 C.3         1 MOL       0.0714
      4 C4         20.0685   11.8748    1.0495 C.ar        1 MOL       0.1613
      5 C5         20.5424   11.3101    2.2310 C.ar        1 MOL       0.1045
      6 C6         21.7041   11.8381    2.8174 C.ar        1 MOL       0.1298
      7 C7         15.0430   10.3259    5.6887 C.3         1 MOL       0.0226
      8 N1         22.3298   12.8717    2.1891 N.ar        1 MOL      -0.2698
      9 N2         13.1142   10.2350    3.0225 N.am        1 MOL      -0.1294
     10 O1         14.6097    8.6100    2.8506 O.2         1 MOL      -0.3891
     11 C8         18.7697   10.2546    1.6414 C.2         1 MOL       0.1123
     12 O2         19.2226   10.8280   -2.4935 O.3         1 MOL      -0.3836
     13 N3         20.7186   12.9125    0.4616 N.ar        1 MOL      -0.2714
     14 C9         15.5196   11.4572    4.7110 C.3         1 MOL      -0.0527
     15 C10        14.3748   11.0365    6.9149 C.3         1 MOL      -0.0527
     16 C11        16.3363    9.6120    6.2077 C.3         1 MOL      -0.0527
     17 N4         12.7206    9.1581    5.5932 N.4         1 MOL       0.2383
     18 S1         12.8406   10.4457    1.3715 S.o2        1 MOL       0.1859
     19 O1A        11.7093   11.6729    1.1087 O.2         1 MOL      -0.1218
     20 O2A        12.2736    9.0080    0.6874 O.2         1 MOL      -0.1218
     21 O5         14.2895   10.8602    0.6025 O.3         1 MOL      -0.2161
     22 C25        14.4993   10.8072   -0.8103 C.3         1 MOL       0.1073
     23 C24        15.9361   11.2897   -1.1769 C.3         1 MOL       0.1161
     24 C23        16.7593   10.3602   -2.1071 C.3         1 MOL       0.1146
     25 O3         16.6088   10.7451   -3.4711 O.3         1 MOL      -0.3864
     26 C22        18.2064   10.4395   -1.5616 C.3         1 MOL       0.1385
     27 C21        18.1094   11.4801   -0.4260 C.3         1 MOL       0.2010
     28 O4         16.7436   11.4552   -0.0050 O.3         1 MOL      -0.3367
     29 N9         18.9568   11.2094    0.6999 N.pl3       1 MOL      -0.1919
     30 N7         19.7252   10.3093    2.5867 N.2         1 MOL      -0.2958
     31 N6         22.1928   11.3567    3.9715 N.pl3       1 MOL      -0.3152
     32 H1         22.3495   14.1793    0.5889 H           1 MOL       0.0996
     33 H2         14.4687    8.2447    5.2322 H           1 MOL       0.1104
     34 H3         12.6138   10.8073    3.6264 H           1 MOL       0.2167
     35 H4         17.9952    9.5868    1.6609 H           1 MOL       0.1349
     36 H5         18.8245   10.8098   -3.3920 H           1 MOL       0.2101
     37 H6         16.2011   12.1545    5.2005 H           1 MOL       0.0238
     38 H7         14.6697   12.0324    4.3398 H           1 MOL       0.0238
     39 H8         16.0511   11.0371    3.8509 H           1 MOL       0.0238
     40 H9         14.0886   10.3080    7.6783 H           1 MOL       0.0238
     41 H10        13.4769   11.5760    6.6046 H           1 MOL       0.0238
     42 H11        15.0488   11.7577    7.3834 H           1 MOL       0.0238
     43 H12        16.8521    9.1047    5.3878 H           1 MOL       0.0238
     44 H13        16.0882    8.8639    6.9651 H           1 MOL       0.0238
     45 H14        17.0351   10.3204    6.6589 H           1 MOL       0.0238
     46 H15        12.1862    8.4253    5.1193 H           1 MOL       0.2015
     47 H16        12.2361   10.0510    5.4777 H           1 MOL       0.2015
     48 H17        12.7819    8.9302    6.5887 H           1 MOL       0.2015
     49 H18        13.7620   11.4458   -1.3053 H           1 MOL       0.0611
     50 H19        14.3280    9.7823   -1.1420 H           1 MOL       0.0611
     51 H20        15.8505   12.2806   -1.6352 H           1 MOL       0.0648
     52 H21        16.4159    9.3257   -2.0249 H           1 MOL       0.0648
     53 H22        16.9412   11.6616   -3.5306 H           1 MOL       0.2100
     54 H23        18.4861    9.4642   -1.1493 H           1 MOL       0.0676
     55 H24        18.3246   12.4810   -0.8292 H           1 MOL       0.0996
     56 H25        22.9904   11.7477    4.3612 H           1 MOL       0.1820
     57 H26        21.7416   10.6269    4.4241 H           1 MOL       0.1820
@<TRIPOS>BOND
     1     1     3   1
     2     9     1  am
     3     1    10   2
     4     2     8  ar
     5    13     2  ar
     6     3     7   1
     7     3    17   1
     8     4     5  ar
     9     4    13  ar
    10    29     4   1
    11     5     6  ar
    12    30     5   1
    13     6     8  ar
    14     6    31   1
    15     7    14   1
    16     7    15   1
    17     7    16   1
    18    18     9  am
    19    29    11   1
    20    11    30   2
    21    26    12   1
    22    18    19   2
    23    18    20   2
    24    21    18   1
    25    22    21   1
    26    23    22   1
    27    23    24   1
    28    28    23   1
    29    24    25   1
    30    26    24   1
    31    27    26   1
    32    27    28   1
    33    27    29   1
    34     2    32   1
    35     3    33   1
    36     9    34   1
    37    11    35   1
    38    12    36   1
    39    14    37   1
    40    14    38   1
    41    14    39   1
    42    15    40   1
    43    15    41   1
    44    15    42   1
    45    16    43   1
    46    16    44   1
    47    16    45   1
    48    17    46   1
    49    17    47   1
    50    17    48   1
    51    22    49   1
    52    22    50   1
    53    23    51   1
    54    24    52   1
    55    25    53   1
    56    26    54   1
    57    27    55   1
    58    31    56   1
    59    31    57   1
@<TRIPOS>SUBSTRUCTURE
     1  MOL      1

