@<TRIPOS>MOLECULE
3coy_ligand_007
    57    59
SMALL
GAST_HUCK
****
This file was generated by PARSER (from files_GN.cpp)

@<TRIPOS>ATOM
      1 C1         20.4729    9.5282    2.3349 C.2         1 MOL       0.2465
      2 C2         13.6191    8.4494   -4.7184 C.ar        1 MOL       0.0533
      3 C3         21.3261    8.3601    2.5590 C.3         1 MOL       0.0714
      4 C4         13.9745    9.9861   -2.9744 C.ar        1 MOL       0.1613
      5 C5         14.5862   10.8758   -3.8552 C.ar        1 MOL       0.1045
      6 C6         14.7281   10.5055   -5.2018 C.ar        1 MOL       0.1298
      7 C7         21.0129    7.4810    3.8401 C.3         1 MOL       0.0226
      8 N1         14.2298    9.3010   -5.5898 N.ar        1 MOL      -0.2698
      9 N2         19.2681    9.4069    1.7966 N.am        1 MOL      -0.1294
     10 O1         20.9193   10.6337    2.6328 O.2         1 MOL      -0.3891
     11 C8         14.5759   11.7543   -1.8940 C.2         1 MOL       0.1123
     12 O2         14.3377    7.5351   -0.7012 O.3         1 MOL      -0.3836
     13 N3         13.5002    8.7892   -3.4092 N.ar        1 MOL      -0.2714
     14 C9         22.3026    6.6955    4.2665 C.3         1 MOL      -0.0527
     15 C10        20.5912    8.3905    5.0454 C.3         1 MOL      -0.0527
     16 C11        19.8821    6.4247    3.5965 C.3         1 MOL      -0.0527
     17 N4         21.3651    7.5784    1.3072 N.4         1 MOL       0.2383
     18 S1         18.1995   10.6794    1.4687 S.o2        1 MOL       0.1859
     19 O1A        17.9702   10.8025   -0.2040 O.2         1 MOL      -0.1218
     20 O2A        18.7866   12.1824    1.9924 O.2         1 MOL      -0.1218
     21 O5         16.6869   10.3957    2.1840 O.3         1 MOL      -0.2161
     22 C25        15.5085   11.1513    1.8730 C.3         1 MOL       0.1073
     23 C24        14.2095   10.2994    1.7039 C.3         1 MOL       0.1161
     24 C23        14.3896    8.7914    1.4158 C.3         1 MOL       0.1146
     25 O3         13.2110    8.0548    1.7692 O.3         1 MOL      -0.3864
     26 C22        14.5747    8.8081   -0.0999 C.3         1 MOL       0.1385
     27 C21        13.5800    9.9075   -0.5333 C.3         1 MOL       0.2010
     28 O4         13.4526   10.8092    0.5870 O.3         1 MOL      -0.3367
     29 N9         14.0029   10.5398   -1.7494 N.pl3       1 MOL      -0.1919
     30 N7         14.9498   11.9671   -3.1692 N.2         1 MOL      -0.2958
     31 N6         15.3519   11.2905   -6.0932 N.pl3       1 MOL      -0.3152
     32 H1         13.2583    7.5533   -5.0483 H           1 MOL       0.0996
     33 H2         22.3514    8.7249    2.6776 H           1 MOL       0.1104
     34 H3         19.0021    8.5250    1.4819 H           1 MOL       0.2167
     35 H4         14.7445   12.4219   -1.1422 H           1 MOL       0.1349
     36 H5         15.1730    7.0501   -0.5106 H           1 MOL       0.2101
     37 H6         22.1184    6.0754    5.1457 H           1 MOL       0.0238
     38 H7         23.1170    7.3826    4.5087 H           1 MOL       0.0238
     39 H8         22.6447    6.0413    3.4638 H           1 MOL       0.0238
     40 H9         19.6380    8.8835    4.8467 H           1 MOL       0.0238
     41 H10        21.3393    9.1653    5.2275 H           1 MOL       0.0238
     42 H11        20.4737    7.8067    5.9636 H           1 MOL       0.0238
     43 H12        20.1788    5.7126    2.8221 H           1 MOL       0.0238
     44 H13        18.9503    6.8962    3.2889 H           1 MOL       0.0238
     45 H14        19.6754    5.8538    4.5072 H           1 MOL       0.0238
     46 H15        21.6602    8.1810    0.5351 H           1 MOL       0.2015
     47 H16        20.4391    7.1982    1.0954 H           1 MOL       0.2015
     48 H17        22.0313    6.8068    1.3916 H           1 MOL       0.2015
     49 H18        15.6867   11.7396    0.9710 H           1 MOL       0.0611
     50 H19        15.3533   11.8645    2.6845 H           1 MOL       0.0611
     51 H20        13.6059   10.4127    2.6079 H           1 MOL       0.0648
     52 H21        15.2507    8.3446    1.9210 H           1 MOL       0.0648
     53 H22        13.1946    8.0567    2.7492 H           1 MOL       0.2100
     54 H23        15.6002    9.1156   -0.3315 H           1 MOL       0.0676
     55 H24        12.5887    9.4672   -0.6910 H           1 MOL       0.0996
     56 H25        15.4547   10.9983   -7.0145 H           1 MOL       0.1820
     57 H26        15.7293   12.1401   -5.8146 H           1 MOL       0.1820
@<TRIPOS>BOND
     1     1     3   1
     2     9     1  am
     3     1    10   2
     4     2     8  ar
     5    13     2  ar
     6     3     7   1
     7     3    17   1
     8     4     5  ar
     9     4    13  ar
    10    29     4   1
    11     5     6  ar
    12    30     5   1
    13     6     8  ar
    14     6    31   1
    15     7    14   1
    16     7    15   1
    17     7    16   1
    18    18     9  am
    19    29    11   1
    20    11    30   2
    21    26    12   1
    22    18    19   2
    23    18    20   2
    24    21    18   1
    25    22    21   1
    26    23    22   1
    27    23    24   1
    28    28    23   1
    29    24    25   1
    30    26    24   1
    31    27    26   1
    32    27    28   1
    33    27    29   1
    34     2    32   1
    35     3    33   1
    36     9    34   1
    37    11    35   1
    38    12    36   1
    39    14    37   1
    40    14    38   1
    41    14    39   1
    42    15    40   1
    43    15    41   1
    44    15    42   1
    45    16    43   1
    46    16    44   1
    47    16    45   1
    48    17    46   1
    49    17    47   1
    50    17    48   1
    51    22    49   1
    52    22    50   1
    53    23    51   1
    54    24    52   1
    55    25    53   1
    56    26    54   1
    57    27    55   1
    58    31    56   1
    59    31    57   1
@<TRIPOS>SUBSTRUCTURE
     1  MOL      1

