@<TRIPOS>MOLECULE
3coy_ligand_053
    57    59
SMALL
GAST_HUCK
****
This file was generated by PARSER (from files_GN.cpp)

@<TRIPOS>ATOM
      1 C1         14.9659    9.9023    8.7841 C.2         1 MOL       0.2465
      2 C2         12.8116   10.5237   -1.4403 C.ar        1 MOL       0.0533
      3 C3         14.8134   11.2916    9.2140 C.3         1 MOL       0.0714
      4 C4         13.8886   10.7709    0.6390 C.ar        1 MOL       0.1613
      5 C5         12.9338   11.7053    1.0415 C.ar        1 MOL       0.1045
      6 C6         11.8955   12.0416    0.1530 C.ar        1 MOL       0.1298
      7 C7         13.4388   11.6053    9.9428 C.3         1 MOL       0.0226
      8 N1         11.8712   11.4337   -1.0615 N.ar        1 MOL      -0.2698
      9 N2         14.7550    9.5550    7.5249 N.am        1 MOL      -0.1294
     10 O1         15.3243    9.0739    9.6099 O.2         1 MOL      -0.3891
     11 C8         14.3595   11.4630    2.6320 C.2         1 MOL       0.1123
     12 O2         18.2399    9.9759    0.8188 O.3         1 MOL      -0.3836
     13 N3         13.8195   10.1922   -0.5878 N.ar        1 MOL      -0.2714
     14 C9         12.2617   11.4981    8.9195 C.3         1 MOL      -0.0527
     15 C10        13.1689   10.6285   11.1354 C.3         1 MOL      -0.0527
     16 C11        13.4444   13.0596   10.5205 C.3         1 MOL      -0.0527
     17 N4         16.0078   11.6660   10.0005 N.4         1 MOL       0.2383
     18 S1         14.9371    8.0078    6.8752 S.o2        1 MOL       0.1859
     19 O1A        13.4316    7.2505    6.7960 O.2         1 MOL      -0.1218
     20 O2A        15.9882    7.0928    7.8274 O.2         1 MOL      -0.1218
     21 O5         15.5490    8.1701    5.3083 O.3         1 MOL      -0.2161
     22 C25        16.8592    8.6794    5.0476 C.3         1 MOL       0.1073
     23 C24        17.0676    8.9202    3.5265 C.3         1 MOL       0.1161
     24 C23        17.7227   10.2747    3.1956 C.3         1 MOL       0.1146
     25 O3         19.1381   10.2486    3.3711 O.3         1 MOL      -0.3864
     26 C22        17.2817   10.5075    1.7451 C.3         1 MOL       0.1385
     27 C21        15.9200    9.7646    1.6706 C.3         1 MOL       0.2010
     28 O4         15.8187    8.9142    2.8242 O.3         1 MOL      -0.3367
     29 N9         14.7738   10.6361    1.6460 N.pl3       1 MOL      -0.1919
     30 N7         13.2444   12.1263    2.2729 N.2         1 MOL      -0.2958
     31 N6         10.9487   12.9384    0.4762 N.pl3       1 MOL      -0.3152
     32 H1         12.7583   10.0915   -2.3609 H           1 MOL       0.0996
     33 H2         14.8581   11.9359    8.3186 H           1 MOL       0.1104
     34 H3         14.4804   10.2573    6.9077 H           1 MOL       0.2167
     35 H4         14.8153   11.5793    3.5350 H           1 MOL       0.1349
     36 H5         18.0161    9.0227    0.7121 H           1 MOL       0.2101
     37 H6         11.3103   11.7524    9.3856 H           1 MOL       0.0238
     38 H7         12.1818   10.4856    8.5239 H           1 MOL       0.0238
     39 H8         12.4171   12.1793    8.0820 H           1 MOL       0.0238
     40 H9         14.0223   10.6107   11.8151 H           1 MOL       0.0238
     41 H10        12.9865    9.6144   10.7765 H           1 MOL       0.0238
     42 H11        12.2961   10.9414   11.7054 H           1 MOL       0.0238
     43 H12        13.6977   13.7865    9.7482 H           1 MOL       0.0238
     44 H13        14.1704   13.1497   11.3297 H           1 MOL       0.0238
     45 H14        12.4655   13.3253   10.9251 H           1 MOL       0.0238
     46 H15        16.8502   11.3951    9.4939 H           1 MOL       0.2015
     47 H16        15.9905   11.1980   10.9035 H           1 MOL       0.2015
     48 H17        16.0209   12.6743   10.1400 H           1 MOL       0.2015
     49 H18        17.6031    7.9685    5.4200 H           1 MOL       0.0611
     50 H19        16.9874    9.6104    5.6055 H           1 MOL       0.0611
     51 H20        17.6779    8.1051    3.1208 H           1 MOL       0.0648
     52 H21        17.3046   11.0696    3.8190 H           1 MOL       0.0648
     53 H22        19.3972   11.1919    3.4918 H           1 MOL       0.2100
     54 H23        17.1832   11.5770    1.5392 H           1 MOL       0.0676
     55 H24        15.9139    9.1167    0.7889 H           1 MOL       0.0996
     56 H25        10.2587   13.1699   -0.1657 H           1 MOL       0.1820
     57 H26        10.9654   13.3728    1.3422 H           1 MOL       0.1820
@<TRIPOS>BOND
     1     1     3   1
     2     9     1  am
     3     1    10   2
     4     2     8  ar
     5    13     2  ar
     6     3     7   1
     7     3    17   1
     8     4     5  ar
     9     4    13  ar
    10    29     4   1
    11     5     6  ar
    12    30     5   1
    13     6     8  ar
    14     6    31   1
    15     7    14   1
    16     7    15   1
    17     7    16   1
    18    18     9  am
    19    29    11   1
    20    11    30   2
    21    26    12   1
    22    18    19   2
    23    18    20   2
    24    21    18   1
    25    22    21   1
    26    23    22   1
    27    23    24   1
    28    28    23   1
    29    24    25   1
    30    26    24   1
    31    27    26   1
    32    27    28   1
    33    27    29   1
    34     2    32   1
    35     3    33   1
    36     9    34   1
    37    11    35   1
    38    12    36   1
    39    14    37   1
    40    14    38   1
    41    14    39   1
    42    15    40   1
    43    15    41   1
    44    15    42   1
    45    16    43   1
    46    16    44   1
    47    16    45   1
    48    17    46   1
    49    17    47   1
    50    17    48   1
    51    22    49   1
    52    22    50   1
    53    23    51   1
    54    24    52   1
    55    25    53   1
    56    26    54   1
    57    27    55   1
    58    31    56   1
    59    31    57   1
@<TRIPOS>SUBSTRUCTURE
     1  MOL      1

