@<TRIPOS>MOLECULE
3coy_ligand_049
    57    59
SMALL
GAST_HUCK
****
This file was generated by PARSER (from files_GN.cpp)

@<TRIPOS>ATOM
      1 C1         19.1568   10.7739    0.5420 C.2         1 MOL       0.2465
      2 C2         12.0451   11.6042   -0.0642 C.ar        1 MOL       0.0533
      3 C3         19.8021    9.6930    1.2906 C.3         1 MOL       0.0714
      4 C4         13.0962    9.5292   -0.4269 C.ar        1 MOL       0.1613
      5 C5         13.2141    9.3341    0.9439 C.ar        1 MOL       0.1045
      6 C6         12.7492   10.3274    1.8145 C.ar        1 MOL       0.1298
      7 C7         21.0014   10.0018    2.2894 C.3         1 MOL       0.0226
      8 N1         12.1657   11.4400    1.2790 N.ar        1 MOL      -0.2698
      9 N2         18.3080   10.4920   -0.4414 N.am        1 MOL      -0.1294
     10 O1         19.4712   11.9597    0.7401 O.2         1 MOL      -0.3891
     11 C8         14.0860    7.6423   -0.0468 C.2         1 MOL       0.1123
     12 O2         12.8275    7.7659   -4.5221 O.3         1 MOL      -0.3836
     13 N3         12.5193   10.6565   -0.9194 N.ar        1 MOL      -0.2714
     14 C9         22.0750   10.9356    1.6194 C.3         1 MOL      -0.0527
     15 C10        20.5115   10.6565    3.6209 C.3         1 MOL      -0.0527
     16 C11        21.7492    8.6676    2.6735 C.3         1 MOL      -0.0527
     17 N4         18.6982    8.9625    1.9487 N.4         1 MOL       0.2383
     18 S1         17.6250   11.6181   -1.4833 S.o2        1 MOL       0.1859
     19 O1A        18.8098   12.7860   -1.7899 O.2         1 MOL      -0.1218
     20 O2A        16.3237   12.4007   -0.7392 O.2         1 MOL      -0.1218
     21 O5         17.1200   10.8835   -2.9262 O.3         1 MOL      -0.2161
     22 C25        15.8990   11.1591   -3.6289 C.3         1 MOL       0.1073
     23 C24        15.0749    9.8559   -3.8022 C.3         1 MOL       0.1161
     24 C23        13.5730   10.0560   -4.0555 C.3         1 MOL       0.1146
     25 O3         13.2782   10.2877   -5.4336 O.3         1 MOL      -0.3864
     26 C22        12.9593    8.7635   -3.4958 C.3         1 MOL       0.1385
     27 C21        13.9878    8.3070   -2.4254 C.3         1 MOL       0.2010
     28 O4         15.1763    9.0895   -2.5970 O.3         1 MOL      -0.3367
     29 N9         13.6496    8.4614   -1.0315 N.pl3       1 MOL      -0.1919
     30 N7         13.8249    8.1635    1.1625 N.2         1 MOL      -0.2958
     31 N6         12.8913   10.2128    3.1413 N.pl3       1 MOL      -0.3152
     32 H1         11.5933   12.4384   -0.4383 H           1 MOL       0.0996
     33 H2         20.2052    9.0028    0.5422 H           1 MOL       0.1104
     34 H3         18.0999    9.5526   -0.5862 H           1 MOL       0.2167
     35 H4         14.5891    6.7701   -0.1811 H           1 MOL       0.1349
     36 H5         12.2718    8.1815   -5.2104 H           1 MOL       0.2101
     37 H6         22.9919   10.9853    2.2245 H           1 MOL       0.0238
     38 H7         21.7236   11.9701    1.5378 H           1 MOL       0.0238
     39 H8         22.3330   10.5792    0.6130 H           1 MOL       0.0238
     40 H9         19.8607    9.9781    4.1815 H           1 MOL       0.0238
     41 H10        19.9539   11.5766    3.4357 H           1 MOL       0.0238
     42 H11        21.3586   10.9132    4.2689 H           1 MOL       0.0238
     43 H12        22.1371    8.1598    1.7854 H           1 MOL       0.0238
     44 H13        21.0870    7.9705    3.1994 H           1 MOL       0.0238
     45 H14        22.5998    8.8637    3.3373 H           1 MOL       0.0238
     46 H15        18.0081    8.7049    1.2393 H           1 MOL       0.2015
     47 H16        18.2462    9.5503    2.6552 H           1 MOL       0.2015
     48 H17        19.0569    8.1100    2.3803 H           1 MOL       0.2015
     49 H18        16.1310   11.5803   -4.6139 H           1 MOL       0.0611
     50 H19        15.3016   11.8995   -3.0872 H           1 MOL       0.0611
     51 H20        15.5147    9.2668   -4.6183 H           1 MOL       0.0648
     52 H21        13.2006   10.9069   -3.4780 H           1 MOL       0.0648
     53 H22        12.5215   10.9222   -5.4194 H           1 MOL       0.2100
     54 H23        11.9674    8.9319   -3.0624 H           1 MOL       0.0676
     55 H24        14.2520    7.2591   -2.6117 H           1 MOL       0.0996
     56 H25        12.5575   10.9015    3.7315 H           1 MOL       0.1820
     57 H26        13.3286    9.4296    3.5151 H           1 MOL       0.1820
@<TRIPOS>BOND
     1     1     3   1
     2     9     1  am
     3     1    10   2
     4     2     8  ar
     5    13     2  ar
     6     3     7   1
     7     3    17   1
     8     4     5  ar
     9     4    13  ar
    10    29     4   1
    11     5     6  ar
    12    30     5   1
    13     6     8  ar
    14     6    31   1
    15     7    14   1
    16     7    15   1
    17     7    16   1
    18    18     9  am
    19    29    11   1
    20    11    30   2
    21    26    12   1
    22    18    19   2
    23    18    20   2
    24    21    18   1
    25    22    21   1
    26    23    22   1
    27    23    24   1
    28    28    23   1
    29    24    25   1
    30    26    24   1
    31    27    26   1
    32    27    28   1
    33    27    29   1
    34     2    32   1
    35     3    33   1
    36     9    34   1
    37    11    35   1
    38    12    36   1
    39    14    37   1
    40    14    38   1
    41    14    39   1
    42    15    40   1
    43    15    41   1
    44    15    42   1
    45    16    43   1
    46    16    44   1
    47    16    45   1
    48    17    46   1
    49    17    47   1
    50    17    48   1
    51    22    49   1
    52    22    50   1
    53    23    51   1
    54    24    52   1
    55    25    53   1
    56    26    54   1
    57    27    55   1
    58    31    56   1
    59    31    57   1
@<TRIPOS>SUBSTRUCTURE
     1  MOL      1

