@<TRIPOS>MOLECULE
3coy_ligand_037
    57    59
SMALL
GAST_HUCK
****
This file was generated by PARSER (from files_GN.cpp)

@<TRIPOS>ATOM
      1 C1         16.0376    9.2924    6.6040 C.2         1 MOL       0.2465
      2 C2         19.1464   11.4580    1.4853 C.ar        1 MOL       0.0533
      3 C3         15.4057    8.6410    7.7610 C.3         1 MOL       0.0714
      4 C4         20.5890    9.6219    1.1769 C.ar        1 MOL       0.1613
      5 C5         20.4156    9.6955   -0.2038 C.ar        1 MOL       0.1045
      6 C6         19.5835   10.6949   -0.7275 C.ar        1 MOL       0.1298
      7 C7         13.8482    8.2941    7.6405 C.3         1 MOL       0.0226
      8 N1         18.9729   11.5482    0.1390 N.ar        1 MOL      -0.2698
      9 N2         16.4087    8.5879    5.5409 N.am        1 MOL      -0.1294
     10 O1         16.2109   10.5024    6.6386 O.2         1 MOL      -0.3891
     11 C8         21.7343    8.0537    0.2387 C.2         1 MOL       0.1123
     12 O2         23.9682    8.5341    3.9595 O.3         1 MOL      -0.3836
     13 N3         19.9520   10.4966    1.9944 N.ar        1 MOL      -0.2714
     14 C9         13.1838    8.8513    6.3331 C.3         1 MOL      -0.0527
     15 C10        13.5752    6.7509    7.6790 C.3         1 MOL      -0.0527
     16 C11        13.0727    8.9241    8.8496 C.3         1 MOL      -0.0527
     17 N4         16.2571    7.4956    8.1528 N.4         1 MOL       0.2383
     18 S1         17.2260    9.2453    4.2225 S.o2        1 MOL       0.1859
     19 O1A        16.4854   10.6609    3.6740 O.2         1 MOL      -0.1218
     20 O2A        17.3017    8.0917    2.9896 O.2         1 MOL      -0.1218
     21 O5         18.7989    9.6471    4.7078 O.3         1 MOL      -0.2161
     22 C25        19.6308    8.8370    5.5456 C.3         1 MOL       0.1073
     23 C24        20.9662    8.4879    4.8474 C.3         1 MOL       0.1161
     24 C23        21.8965    9.6887    4.6026 C.3         1 MOL       0.1146
     25 O3         22.6295   10.0705    5.7652 O.3         1 MOL      -0.3864
     26 C22        22.7841    9.1668    3.4610 C.3         1 MOL       0.1385
     27 C21        21.8690    8.1481    2.7280 C.3         1 MOL       0.2010
     28 O4         20.7200    7.9122    3.5573 O.3         1 MOL      -0.3367
     29 N9         21.4196    8.5957    1.4339 N.pl3       1 MOL      -0.1919
     30 N7         21.1309    8.7139   -0.7717 N.2         1 MOL      -0.2958
     31 N6         19.3787   10.8272   -2.0524 N.pl3       1 MOL      -0.3152
     32 H1         18.6751   12.1106    2.1070 H           1 MOL       0.0996
     33 H2         15.5336    9.3407    8.5971 H           1 MOL       0.1104
     34 H3         16.2719    7.6268    5.5583 H           1 MOL       0.2167
     35 H4         22.3498    7.2493    0.0979 H           1 MOL       0.1349
     36 H5         23.6546    7.8174    4.5523 H           1 MOL       0.2101
     37 H6         12.1106    8.6783    6.3284 H           1 MOL       0.0238
     38 H7         13.6071    8.3634    5.4516 H           1 MOL       0.0238
     39 H8         13.3524    9.9277    6.2455 H           1 MOL       0.0238
     40 H9         13.8920    6.3191    8.6335 H           1 MOL       0.0238
     41 H10        14.1160    6.2418    6.8788 H           1 MOL       0.0238
     42 H11        12.5142    6.5348    7.5616 H           1 MOL       0.0238
     43 H12        13.1647   10.0139    8.8373 H           1 MOL       0.0238
     44 H13        13.4750    8.5616    9.7998 H           1 MOL       0.0238
     45 H14        12.0116    8.6763    8.8144 H           1 MOL       0.0238
     46 H15        17.2068    7.8172    8.3216 H           1 MOL       0.2015
     47 H16        16.2632    6.7986    7.4047 H           1 MOL       0.2015
     48 H17        15.8837    7.0735    9.0023 H           1 MOL       0.2015
     49 H18        19.1192    7.9076    5.8122 H           1 MOL       0.0611
     50 H19        19.8326    9.3846    6.4684 H           1 MOL       0.0611
     51 H20        21.4883    7.7408    5.4618 H           1 MOL       0.0648
     52 H21        21.3324   10.5530    4.2538 H           1 MOL       0.0648
     53 H22        21.9633   10.4211    6.3909 H           1 MOL       0.2100
     54 H23        23.0992    9.9891    2.8092 H           1 MOL       0.0676
     55 H24        22.3955    7.1987    2.6222 H           1 MOL       0.0996
     56 H25        18.7942   11.5237   -2.3857 H           1 MOL       0.1820
     57 H26        19.8205   10.2270   -2.6742 H           1 MOL       0.1820
@<TRIPOS>BOND
     1     1     3   1
     2     9     1  am
     3     1    10   2
     4     2     8  ar
     5    13     2  ar
     6     3     7   1
     7     3    17   1
     8     4     5  ar
     9     4    13  ar
    10    29     4   1
    11     5     6  ar
    12    30     5   1
    13     6     8  ar
    14     6    31   1
    15     7    14   1
    16     7    15   1
    17     7    16   1
    18    18     9  am
    19    29    11   1
    20    11    30   2
    21    26    12   1
    22    18    19   2
    23    18    20   2
    24    21    18   1
    25    22    21   1
    26    23    22   1
    27    23    24   1
    28    28    23   1
    29    24    25   1
    30    26    24   1
    31    27    26   1
    32    27    28   1
    33    27    29   1
    34     2    32   1
    35     3    33   1
    36     9    34   1
    37    11    35   1
    38    12    36   1
    39    14    37   1
    40    14    38   1
    41    14    39   1
    42    15    40   1
    43    15    41   1
    44    15    42   1
    45    16    43   1
    46    16    44   1
    47    16    45   1
    48    17    46   1
    49    17    47   1
    50    17    48   1
    51    22    49   1
    52    22    50   1
    53    23    51   1
    54    24    52   1
    55    25    53   1
    56    26    54   1
    57    27    55   1
    58    31    56   1
    59    31    57   1
@<TRIPOS>SUBSTRUCTURE
     1  MOL      1

