@<TRIPOS>MOLECULE
3coy_ligand_041
    57    59
SMALL
GAST_HUCK
****
This file was generated by PARSER (from files_GN.cpp)

@<TRIPOS>ATOM
      1 C1         17.4545    8.2704    5.4238 C.2         1 MOL       0.2465
      2 C2         14.1749    7.5234   -0.6059 C.ar        1 MOL       0.0533
      3 C3         18.6540    7.4603    5.3813 C.3         1 MOL       0.0714
      4 C4         13.1011    9.5967   -0.3324 C.ar        1 MOL       0.1613
      5 C5         13.1281    9.8134   -1.7073 C.ar        1 MOL       0.1045
      6 C6         13.7200    8.8454   -2.5350 C.ar        1 MOL       0.1298
      7 C7         20.0182    8.2293    5.0953 C.3         1 MOL       0.0226
      8 N1         14.2258    7.7211   -1.9514 N.ar        1 MOL      -0.2698
      9 N2         17.1718    9.0715    6.4292 N.am        1 MOL      -0.1294
     10 O1         16.6070    8.1117    4.5069 O.2         1 MOL      -0.3891
     11 C8         12.1836   11.4998   -0.7742 C.2         1 MOL       0.1123
     12 O2         10.4090   10.1682    2.9812 O.3         1 MOL      -0.3836
     13 N3         13.6197    8.4603    0.2057 N.ar        1 MOL      -0.2714
     14 C9         20.6253    8.8834    6.3802 C.3         1 MOL      -0.0527
     15 C10        21.0753    7.2112    4.5490 C.3         1 MOL      -0.0527
     16 C11        19.8094    9.3339    4.0025 C.3         1 MOL      -0.0527
     17 N4         18.6481    6.6834    6.6311 N.4         1 MOL       0.2383
     18 S1         15.6662    9.7610    6.8056 S.o2        1 MOL       0.1859
     19 O1A        15.7939   10.6827    8.2274 O.2         1 MOL      -0.1218
     20 O2A        14.5628    8.4845    7.0043 O.2         1 MOL      -0.1218
     21 O5         15.0313   10.7601    5.5774 O.3         1 MOL      -0.2161
     22 C25        14.9924   10.5789    4.1516 C.3         1 MOL       0.1073
     23 C24        13.5636   10.7180    3.5821 C.3         1 MOL       0.1161
     24 C23        12.7289    9.4210    3.5233 C.3         1 MOL       0.1146
     25 O3         12.1833    9.0076    4.7679 O.3         1 MOL      -0.3864
     26 C22        11.6709    9.7479    2.4495 C.3         1 MOL       0.1385
     27 C21        12.3370   10.9063    1.6482 C.3         1 MOL       0.2010
     28 O4         13.6351   11.1248    2.2121 O.3         1 MOL      -0.3367
     29 N9         12.5103   10.6602    0.2390 N.pl3       1 MOL      -0.1919
     30 N7         12.5571   10.9982   -1.9672 N.2         1 MOL      -0.2958
     31 N6         13.8071    9.0174   -3.8633 N.pl3       1 MOL      -0.3152
     32 H1         14.5594    6.6742   -0.1987 H           1 MOL       0.0996
     33 H2         18.5236    6.7172    4.5893 H           1 MOL       0.1104
     34 H3         17.8306    9.1175    7.1556 H           1 MOL       0.2167
     35 H4         11.7195   12.4046   -0.6596 H           1 MOL       0.1349
     36 H5          9.8921    9.3472    3.1339 H           1 MOL       0.2101
     37 H6         21.5447    9.4161    6.1363 H           1 MOL       0.0238
     38 H7         20.8699    8.1247    7.1249 H           1 MOL       0.0238
     39 H8         19.9348    9.5923    6.8285 H           1 MOL       0.0238
     40 H9         20.7201    6.7231    3.6402 H           1 MOL       0.0238
     41 H10        21.2932    6.4406    5.2896 H           1 MOL       0.0238
     42 H11        22.0106    7.7191    4.3098 H           1 MOL       0.0238
     43 H12        19.1350   10.1120    4.3604 H           1 MOL       0.0238
     44 H13        19.3832    8.9016    3.0957 H           1 MOL       0.0238
     45 H14        20.7559    9.8084    3.7449 H           1 MOL       0.0238
     46 H15        17.7541    6.1898    6.6971 H           1 MOL       0.2015
     47 H16        18.7523    7.3157    7.4253 H           1 MOL       0.2015
     48 H17        19.4097    6.0022    6.6225 H           1 MOL       0.2015
     49 H18        15.3715    9.5988    3.8505 H           1 MOL       0.0611
     50 H19        15.6575   11.3357    3.7247 H           1 MOL       0.0611
     51 H20        13.0513   11.5024    4.1539 H           1 MOL       0.0648
     52 H21        13.3637    8.6134    3.1529 H           1 MOL       0.0648
     53 H22        11.5506    9.7032    5.0338 H           1 MOL       0.2100
     54 H23        11.4813    8.8696    1.8210 H           1 MOL       0.0676
     55 H24        11.7570   11.8299    1.7908 H           1 MOL       0.0996
     56 H25        14.2380    8.3445   -4.4167 H           1 MOL       0.1820
     57 H26        13.4549    9.8252   -4.2714 H           1 MOL       0.1820
@<TRIPOS>BOND
     1     1     3   1
     2     9     1  am
     3     1    10   2
     4     2     8  ar
     5    13     2  ar
     6     3     7   1
     7     3    17   1
     8     4     5  ar
     9     4    13  ar
    10    29     4   1
    11     5     6  ar
    12    30     5   1
    13     6     8  ar
    14     6    31   1
    15     7    14   1
    16     7    15   1
    17     7    16   1
    18    18     9  am
    19    29    11   1
    20    11    30   2
    21    26    12   1
    22    18    19   2
    23    18    20   2
    24    21    18   1
    25    22    21   1
    26    23    22   1
    27    23    24   1
    28    28    23   1
    29    24    25   1
    30    26    24   1
    31    27    26   1
    32    27    28   1
    33    27    29   1
    34     2    32   1
    35     3    33   1
    36     9    34   1
    37    11    35   1
    38    12    36   1
    39    14    37   1
    40    14    38   1
    41    14    39   1
    42    15    40   1
    43    15    41   1
    44    15    42   1
    45    16    43   1
    46    16    44   1
    47    16    45   1
    48    17    46   1
    49    17    47   1
    50    17    48   1
    51    22    49   1
    52    22    50   1
    53    23    51   1
    54    24    52   1
    55    25    53   1
    56    26    54   1
    57    27    55   1
    58    31    56   1
    59    31    57   1
@<TRIPOS>SUBSTRUCTURE
     1  MOL      1

