@<TRIPOS>MOLECULE
3coy_ligand_038
    57    59
SMALL
GAST_HUCK
****
This file was generated by PARSER (from files_GN.cpp)

@<TRIPOS>ATOM
      1 C1         16.9064    9.0073    5.6528 C.2         1 MOL       0.2465
      2 C2         14.8802   10.8734    1.3753 C.ar        1 MOL       0.0533
      3 C3         16.0754    9.5479    6.7304 C.3         1 MOL       0.0714
      4 C4         16.3513   10.5824   -0.4436 C.ar        1 MOL       0.1613
      5 C5         15.3108   10.0785   -1.2223 C.ar        1 MOL       0.1045
      6 C6         14.0339    9.9433   -0.6484 C.ar        1 MOL       0.1298
      7 C7         14.6228   10.0831    6.3857 C.3         1 MOL       0.0226
      8 N1         13.8584   10.3569    0.6377 N.ar        1 MOL      -0.2698
      9 N2         18.2228    8.9353    5.8182 N.am        1 MOL      -0.1294
     10 O1         16.3797    8.5267    4.6560 O.2         1 MOL      -0.3891
     11 C8         17.0837   10.1408   -2.4264 C.2         1 MOL       0.1123
     12 O2         20.1796   12.9140   -0.3787 O.3         1 MOL      -0.3836
     13 N3         16.1243   10.9708    0.8400 N.ar        1 MOL      -0.2714
     14 C9         13.5726    8.9269    6.2589 C.3         1 MOL      -0.0527
     15 C10        14.1235   11.0568    7.5140 C.3         1 MOL      -0.0527
     16 C11        14.6409   10.8973    5.0466 C.3         1 MOL      -0.0527
     17 N4         16.0652    8.5231    7.7893 N.4         1 MOL       0.2383
     18 S1         19.3195    8.2787    4.7170 S.o2        1 MOL       0.1859
     19 O1A        18.7735    6.7958    4.1089 O.2         1 MOL      -0.1218
     20 O2A        20.7977    8.1291    5.5236 O.2         1 MOL      -0.1218
     21 O5         19.5165    9.3846    3.4444 O.3         1 MOL      -0.2161
     22 C25        19.4577    8.9909    2.0675 C.3         1 MOL       0.1073
     23 C24        19.8675   10.1330    1.1028 C.3         1 MOL       0.1161
     24 C23        19.2884   11.5218    1.4472 C.3         1 MOL       0.1146
     25 O3         20.1493   12.3050    2.2744 O.3         1 MOL      -0.3864
     26 C22        19.0485   12.1521    0.0656 C.3         1 MOL       0.1385
     27 C21        18.8225   10.9287   -0.8596 C.3         1 MOL       0.2010
     28 O4         19.4085    9.7885   -0.2149 O.3         1 MOL      -0.3367
     29 N9         17.4635   10.5996   -1.2119 N.pl3       1 MOL      -0.1919
     30 N7         15.7797    9.8145   -2.4482 N.2         1 MOL      -0.2958
     31 N6         13.0041    9.4270   -1.3362 N.pl3       1 MOL      -0.3152
     32 H1         14.7115   11.1924    2.3276 H           1 MOL       0.0996
     33 H2         16.6215   10.4015    7.1393 H           1 MOL       0.1104
     34 H3         18.5816    9.2552    6.6678 H           1 MOL       0.2167
     35 H4         17.7029   10.0399   -3.2321 H           1 MOL       0.1349
     36 H5         20.8364   12.2673   -0.7115 H           1 MOL       0.2101
     37 H6         12.5858    9.3244    6.0049 H           1 MOL       0.0238
     38 H7         13.4879    8.3742    7.1985 H           1 MOL       0.0238
     39 H8         13.8459    8.2189    5.4746 H           1 MOL       0.0238
     40 H9         14.8057   11.9053    7.6269 H           1 MOL       0.0238
     41 H10        14.0536   10.5460    8.4751 H           1 MOL       0.0238
     42 H11        13.1316   11.4535    7.2796 H           1 MOL       0.0238
     43 H12        14.8930   10.2549    4.1972 H           1 MOL       0.0238
     44 H13        15.3787   11.7048    5.0997 H           1 MOL       0.0238
     45 H14        13.6617   11.3485    4.8560 H           1 MOL       0.0238
     46 H15        17.0236    8.3310    8.0825 H           1 MOL       0.2015
     47 H16        15.6454    7.6596    7.4401 H           1 MOL       0.2015
     48 H17        15.5300    8.8599    8.5885 H           1 MOL       0.2015
     49 H18        18.4412    8.6593    1.8241 H           1 MOL       0.0611
     50 H19        20.1440    8.1506    1.9097 H           1 MOL       0.0611
     51 H20        20.9604   10.1953    1.0708 H           1 MOL       0.0648
     52 H21        18.3396   11.4159    1.9765 H           1 MOL       0.0648
     53 H22        20.6541   11.6507    2.8100 H           1 MOL       0.2100
     54 H23        18.1892   12.8258    0.0818 H           1 MOL       0.0676
     55 H24        19.3945   11.0842   -1.7871 H           1 MOL       0.0996
     56 H25        12.1402    9.3408   -0.9081 H           1 MOL       0.1820
     57 H26        13.1251    9.1290   -2.2487 H           1 MOL       0.1820
@<TRIPOS>BOND
     1     1     3   1
     2     9     1  am
     3     1    10   2
     4     2     8  ar
     5    13     2  ar
     6     3     7   1
     7     3    17   1
     8     4     5  ar
     9     4    13  ar
    10    29     4   1
    11     5     6  ar
    12    30     5   1
    13     6     8  ar
    14     6    31   1
    15     7    14   1
    16     7    15   1
    17     7    16   1
    18    18     9  am
    19    29    11   1
    20    11    30   2
    21    26    12   1
    22    18    19   2
    23    18    20   2
    24    21    18   1
    25    22    21   1
    26    23    22   1
    27    23    24   1
    28    28    23   1
    29    24    25   1
    30    26    24   1
    31    27    26   1
    32    27    28   1
    33    27    29   1
    34     2    32   1
    35     3    33   1
    36     9    34   1
    37    11    35   1
    38    12    36   1
    39    14    37   1
    40    14    38   1
    41    14    39   1
    42    15    40   1
    43    15    41   1
    44    15    42   1
    45    16    43   1
    46    16    44   1
    47    16    45   1
    48    17    46   1
    49    17    47   1
    50    17    48   1
    51    22    49   1
    52    22    50   1
    53    23    51   1
    54    24    52   1
    55    25    53   1
    56    26    54   1
    57    27    55   1
    58    31    56   1
    59    31    57   1
@<TRIPOS>SUBSTRUCTURE
     1  MOL      1

