@<TRIPOS>MOLECULE
3coy_ligand_029
    57    59
SMALL
GAST_HUCK
****
This file was generated by PARSER (from files_GN.cpp)

@<TRIPOS>ATOM
      1 C1         16.4212   11.1010   -0.7548 C.2         1 MOL       0.2465
      2 C2         17.1676   11.0756    4.3674 C.ar        1 MOL       0.0533
      3 C3         17.7537   11.3719   -0.1998 C.3         1 MOL       0.0714
      4 C4         14.9050   11.2525    3.7454 C.ar        1 MOL       0.1613
      5 C5         15.1290   12.5383    3.2621 C.ar        1 MOL       0.1045
      6 C6         16.4069   13.1009    3.3701 C.ar        1 MOL       0.1298
      7 C7         18.9575   10.5938   -0.8792 C.3         1 MOL       0.0226
      8 N1         17.3962   12.3431    3.9210 N.ar        1 MOL      -0.2698
      9 N2         15.8182    9.9559   -0.4874 N.am        1 MOL      -0.1294
     10 O1         15.8641   11.9388   -1.4562 O.2         1 MOL      -0.3891
     11 C8         13.0618   12.0461    2.9678 C.2         1 MOL       0.1123
     12 O2         10.8542    8.5804    4.4259 O.3         1 MOL      -0.3836
     13 N3         15.9241   10.5371    4.2919 N.ar        1 MOL      -0.2714
     14 C9         18.9812   10.8464   -2.4211 C.3         1 MOL      -0.0527
     15 C10        20.3285   11.0551   -0.2742 C.3         1 MOL      -0.0527
     16 C11        18.8587    9.0499   -0.6330 C.3         1 MOL      -0.0527
     17 N4         17.9916   12.8333   -0.1598 N.4         1 MOL       0.2383
     18 S1         14.2819    9.4750   -1.0012 S.o2        1 MOL       0.1859
     19 O1A        14.3697    8.8058   -2.5564 O.2         1 MOL      -0.1218
     20 O2A        13.2304   10.7918   -1.1179 O.2         1 MOL      -0.1218
     21 O5         13.6374    8.3109    0.0433 O.3         1 MOL      -0.2161
     22 C25        14.1810    7.9941    1.3307 C.3         1 MOL       0.1073
     23 C24        13.1173    8.0449    2.4590 C.3         1 MOL       0.1161
     24 C23        11.8195    8.8407    2.1811 C.3         1 MOL       0.1146
     25 O3         10.7703    7.9929    1.7292 O.3         1 MOL      -0.3864
     26 C22        11.5263    9.4777    3.5414 C.3         1 MOL       0.1385
     27 C21        12.9565    9.7608    4.0496 C.3         1 MOL       0.2010
     28 O4         13.6970    8.5932    3.6567 O.3         1 MOL      -0.3367
     29 N9         13.6048   10.9616    3.5707 N.pl3       1 MOL      -0.1919
     30 N7         13.9714   13.0175    2.7857 N.2         1 MOL      -0.2958
     31 N6         16.6543   14.3666    2.9892 N.pl3       1 MOL      -0.3152
     32 H1         17.9292   10.5332    4.7726 H           1 MOL       0.0996
     33 H2         17.7179   11.0801    0.8549 H           1 MOL       0.1104
     34 H3         16.3021    9.3158    0.0600 H           1 MOL       0.2167
     35 H4         12.0814   12.1623    2.7039 H           1 MOL       0.1349
     36 H5          9.9787    8.4211    4.0124 H           1 MOL       0.2101
     37 H6         19.8532   10.3765   -2.8813 H           1 MOL       0.0238
     38 H7         19.0148   11.9161   -2.6358 H           1 MOL       0.0238
     39 H8         18.0884   10.4351   -2.9004 H           1 MOL       0.0238
     40 H9         20.3153   10.9783    0.8141 H           1 MOL       0.0238
     41 H10        20.5518   12.0880   -0.5426 H           1 MOL       0.0238
     42 H11        21.1517   10.4414   -0.6450 H           1 MOL       0.0238
     43 H12        18.0151    8.6155   -1.1718 H           1 MOL       0.0238
     44 H13        18.7365    8.8367    0.4316 H           1 MOL       0.0238
     45 H14        19.7586    8.5321   -0.9750 H           1 MOL       0.0238
     46 H15        17.2372   13.2815    0.3626 H           1 MOL       0.2015
     47 H16        18.0126   13.2175   -1.1096 H           1 MOL       0.2015
     48 H17        18.8754   13.0353    0.3057 H           1 MOL       0.2015
     49 H18        14.9960    8.6748    1.5820 H           1 MOL       0.0611
     50 H19        14.6078    6.9897    1.2740 H           1 MOL       0.0611
     51 H20        12.8325    7.0180    2.6986 H           1 MOL       0.0648
     52 H21        11.9797    9.6313    1.4426 H           1 MOL       0.0648
     53 H22         9.9577    8.3127    2.1740 H           1 MOL       0.2100
     54 H23        10.9075   10.3675    3.4388 H           1 MOL       0.0676
     55 H24        12.9569    9.8055    5.1427 H           1 MOL       0.0996
     56 H25        17.5376   14.7414    3.0991 H           1 MOL       0.1820
     57 H26        15.9401   14.9146    2.6266 H           1 MOL       0.1820
@<TRIPOS>BOND
     1     1     3   1
     2     9     1  am
     3     1    10   2
     4     2     8  ar
     5    13     2  ar
     6     3     7   1
     7     3    17   1
     8     4     5  ar
     9     4    13  ar
    10    29     4   1
    11     5     6  ar
    12    30     5   1
    13     6     8  ar
    14     6    31   1
    15     7    14   1
    16     7    15   1
    17     7    16   1
    18    18     9  am
    19    29    11   1
    20    11    30   2
    21    26    12   1
    22    18    19   2
    23    18    20   2
    24    21    18   1
    25    22    21   1
    26    23    22   1
    27    23    24   1
    28    28    23   1
    29    24    25   1
    30    26    24   1
    31    27    26   1
    32    27    28   1
    33    27    29   1
    34     2    32   1
    35     3    33   1
    36     9    34   1
    37    11    35   1
    38    12    36   1
    39    14    37   1
    40    14    38   1
    41    14    39   1
    42    15    40   1
    43    15    41   1
    44    15    42   1
    45    16    43   1
    46    16    44   1
    47    16    45   1
    48    17    46   1
    49    17    47   1
    50    17    48   1
    51    22    49   1
    52    22    50   1
    53    23    51   1
    54    24    52   1
    55    25    53   1
    56    26    54   1
    57    27    55   1
    58    31    56   1
    59    31    57   1
@<TRIPOS>SUBSTRUCTURE
     1  MOL      1

