@<TRIPOS>MOLECULE
3coy_ligand_088
    57    59
SMALL
GAST_HUCK
****
This file was generated by PARSER (from files_GN.cpp)

@<TRIPOS>ATOM
      1 C1         18.4880   11.6497    1.1492 C.2         1 MOL       0.2465
      2 C2         23.4658    7.7238    5.9923 C.ar        1 MOL       0.0533
      3 C3         18.5941   11.9672   -0.2715 C.3         1 MOL       0.0714
      4 C4         21.6897    6.5715    4.9447 C.ar        1 MOL       0.1613
      5 C5         22.5971    5.9296    4.1043 C.ar        1 MOL       0.1045
      6 C6         23.9718    6.2020    4.2395 C.ar        1 MOL       0.1298
      7 C7         17.6202   11.1795   -1.2464 C.3         1 MOL       0.0226
      8 N1         24.3663    7.0954    5.1862 N.ar        1 MOL      -0.2698
      9 N2         17.4357   12.0374    1.8551 N.am        1 MOL      -0.1294
     10 O1         19.4053   11.0259    1.6752 O.2         1 MOL      -0.3891
     11 C8         20.6270    5.2373    3.6187 C.2         1 MOL       0.1123
     12 O2         18.0336    7.0309    7.2911 O.3         1 MOL      -0.3836
     13 N3         22.1341    7.4593    5.8702 N.ar        1 MOL      -0.2714
     14 C9         16.1699   11.7682   -1.2824 C.3         1 MOL      -0.0527
     15 C10        18.1876   11.2345   -2.7032 C.3         1 MOL      -0.0527
     16 C11        17.5298    9.6694   -0.8474 C.3         1 MOL      -0.0527
     17 N4         18.4779   13.4310   -0.3955 N.4         1 MOL       0.2383
     18 S1         17.1525   11.6862    3.4783 S.o2        1 MOL       0.1859
     19 O1A        15.9658   12.7167    4.1007 O.2         1 MOL      -0.1218
     20 O2A        18.6121   11.8145    4.3182 O.2         1 MOL      -0.1218
     21 O5         16.6142   10.0835    3.6179 O.3         1 MOL      -0.2161
     22 C25        17.3505    8.9109    3.2630 C.3         1 MOL       0.1073
     23 C24        17.6242    8.0363    4.5079 C.3         1 MOL       0.1161
     24 C23        18.5304    8.6786    5.5772 C.3         1 MOL       0.1146
     25 O3         17.8337    9.6062    6.4086 O.3         1 MOL      -0.3864
     26 C22        19.0112    7.4346    6.3332 C.3         1 MOL       0.1385
     27 C21        19.1480    6.3841    5.1983 C.3         1 MOL       0.2010
     28 O4         18.2858    6.8240    4.1238 O.3         1 MOL      -0.3367
     29 N9         20.4558    6.1178    4.6353 N.pl3       1 MOL      -0.1919
     30 N7         21.9210    5.1110    3.2885 N.2         1 MOL      -0.2958
     31 N6         24.8895    5.5864    3.4775 N.pl3       1 MOL      -0.3152
     32 H1         23.7884    8.3902    6.6951 H           1 MOL       0.0996
     33 H2         19.6193   11.7389   -0.5879 H           1 MOL       0.1104
     34 H3         16.7673   12.5790    1.4067 H           1 MOL       0.2167
     35 H4         19.8711    4.7182    3.1623 H           1 MOL       0.1349
     36 H5         18.3527    6.1569    7.5993 H           1 MOL       0.2101
     37 H6         15.5488   11.2220   -1.9968 H           1 MOL       0.0238
     38 H7         16.1788   12.8163   -1.5875 H           1 MOL       0.0238
     39 H8         15.6835   11.6987   -0.3102 H           1 MOL       0.0238
     40 H9         19.1848   10.7915   -2.7554 H           1 MOL       0.0238
     41 H10        18.2571   12.2638   -3.0532 H           1 MOL       0.0238
     42 H11        17.5439   10.6860   -3.3954 H           1 MOL       0.0238
     43 H12        17.0430    9.5555    0.1235 H           1 MOL       0.0238
     44 H13        18.5265    9.2250   -0.7845 H           1 MOL       0.0238
     45 H14        16.9484    9.0989   -1.5770 H           1 MOL       0.0238
     46 H15        19.2529   13.8833    0.0960 H           1 MOL       0.2015
     47 H16        17.5954   13.7369    0.0170 H           1 MOL       0.2015
     48 H17        18.4971   13.7031   -1.3780 H           1 MOL       0.2015
     49 H18        18.2953    9.1545    2.7760 H           1 MOL       0.0611
     50 H19        16.7450    8.3443    2.5514 H           1 MOL       0.0611
     51 H20        16.6638    7.7748    4.9605 H           1 MOL       0.0648
     52 H21        19.3842    9.1846    5.1113 H           1 MOL       0.0648
     53 H22        18.3004    9.5692    7.2716 H           1 MOL       0.2100
     54 H23        19.9375    7.6204    6.8808 H           1 MOL       0.0676
     55 H24        18.7651    5.4233    5.5673 H           1 MOL       0.0996
     56 H25        25.8314    5.7590    3.6241 H           1 MOL       0.1820
     57 H26        24.6103    4.9265    2.8270 H           1 MOL       0.1820
@<TRIPOS>BOND
     1     1     3   1
     2     9     1  am
     3     1    10   2
     4     2     8  ar
     5    13     2  ar
     6     3     7   1
     7     3    17   1
     8     4     5  ar
     9     4    13  ar
    10    29     4   1
    11     5     6  ar
    12    30     5   1
    13     6     8  ar
    14     6    31   1
    15     7    14   1
    16     7    15   1
    17     7    16   1
    18    18     9  am
    19    29    11   1
    20    11    30   2
    21    26    12   1
    22    18    19   2
    23    18    20   2
    24    21    18   1
    25    22    21   1
    26    23    22   1
    27    23    24   1
    28    28    23   1
    29    24    25   1
    30    26    24   1
    31    27    26   1
    32    27    28   1
    33    27    29   1
    34     2    32   1
    35     3    33   1
    36     9    34   1
    37    11    35   1
    38    12    36   1
    39    14    37   1
    40    14    38   1
    41    14    39   1
    42    15    40   1
    43    15    41   1
    44    15    42   1
    45    16    43   1
    46    16    44   1
    47    16    45   1
    48    17    46   1
    49    17    47   1
    50    17    48   1
    51    22    49   1
    52    22    50   1
    53    23    51   1
    54    24    52   1
    55    25    53   1
    56    26    54   1
    57    27    55   1
    58    31    56   1
    59    31    57   1
@<TRIPOS>SUBSTRUCTURE
     1  MOL      1

