@<TRIPOS>MOLECULE
3coy_ligand_086
    57    59
SMALL
GAST_HUCK
****
This file was generated by PARSER (from files_GN.cpp)

@<TRIPOS>ATOM
      1 C1         19.5912    9.8098    1.9677 C.2         1 MOL       0.2465
      2 C2         14.6441   12.3437   -2.0600 C.ar        1 MOL       0.0533
      3 C3         19.8050   10.4208    0.6651 C.3         1 MOL       0.0714
      4 C4         14.2138   10.2601   -1.0548 C.ar        1 MOL       0.1613
      5 C5         14.4327    9.6123   -2.2690 C.ar        1 MOL       0.1045
      6 C6         14.7450   10.3818   -3.4048 C.ar        1 MOL       0.1298
      7 C7         19.2873   11.9214    0.5038 C.3         1 MOL       0.0226
      8 N1         14.8482   11.7299   -3.2568 N.ar        1 MOL      -0.2698
      9 N2         18.6095    8.9291    2.1189 N.am        1 MOL      -0.1294
     10 O1         20.2447   10.2110    2.9191 O.2         1 MOL      -0.3891
     11 C8         13.9909    8.1305   -0.7785 C.2         1 MOL       0.1123
     12 O2         12.0174    7.7899    1.8648 O.3         1 MOL      -0.3836
     13 N3         14.3179   11.6117   -0.9617 N.ar        1 MOL      -0.2714
     14 C9         18.1248   12.2813    1.4968 C.3         1 MOL      -0.0527
     15 C10        20.4316   12.9735    0.7173 C.3         1 MOL      -0.0527
     16 C11        18.7174   12.1179   -0.9436 C.3         1 MOL      -0.0527
     17 N4         21.2248   10.2486    0.3167 N.4         1 MOL       0.2383
     18 S1         17.9888    8.3019    3.5572 S.o2        1 MOL       0.1859
     19 O1A        18.7476    8.9863    4.9008 O.2         1 MOL      -0.1218
     20 O2A        18.1502    6.6199    3.5012 O.2         1 MOL      -0.1218
     21 O5         16.3356    8.6595    3.5508 O.3         1 MOL      -0.2161
     22 C25        15.7796    9.8963    4.0100 C.3         1 MOL       0.1073
     23 C24        14.4140   10.1701    3.3268 C.3         1 MOL       0.1161
     24 C23        13.3642    9.0433    3.5489 C.3         1 MOL       0.1146
     25 O3         12.1095    9.5757    3.9725 O.3         1 MOL      -0.3864
     26 C22        13.2620    8.4098    2.1585 C.3         1 MOL       0.1385
     27 C21        13.5551    9.6042    1.2291 C.3         1 MOL       0.2010
     28 O4         14.6231   10.2926    1.9057 O.3         1 MOL      -0.3367
     29 N9         13.9205    9.3217   -0.1351 N.pl3       1 MOL      -0.1919
     30 N7         14.2902    8.2942   -2.0779 N.2         1 MOL      -0.2958
     31 N6         14.9258    9.8213   -4.6101 N.pl3       1 MOL      -0.3152
     32 H1         14.7355   13.3541   -1.9831 H           1 MOL       0.0996
     33 H2         19.2820    9.8001   -0.0713 H           1 MOL       0.1104
     34 H3         18.1214    8.6700    1.3141 H           1 MOL       0.2167
     35 H4         13.8262    7.2173   -0.3572 H           1 MOL       0.1349
     36 H5         11.3280    8.3150    2.3344 H           1 MOL       0.2101
     37 H6         17.7164   13.2681    1.3048 H           1 MOL       0.0238
     38 H7         18.4786   12.2728    2.5338 H           1 MOL       0.0238
     39 H8         17.3156   11.5536    1.4127 H           1 MOL       0.0238
     40 H9         21.2084   12.8730   -0.0380 H           1 MOL       0.0238
     41 H10        20.8928   12.8386    1.6986 H           1 MOL       0.0238
     42 H11        20.0516   13.9956    0.6583 H           1 MOL       0.0238
     43 H12        17.8568   11.4677   -1.1090 H           1 MOL       0.0238
     44 H13        19.4774   11.8774   -1.6881 H           1 MOL       0.0238
     45 H14        18.3924   13.1494   -1.1071 H           1 MOL       0.0238
     46 H15        21.4586    9.2540    0.2447 H           1 MOL       0.2015
     47 H16        21.8204   10.6736    1.0361 H           1 MOL       0.2015
     48 H17        21.4219   10.7050   -0.5774 H           1 MOL       0.2015
     49 H18        16.4591   10.7193    3.7817 H           1 MOL       0.0611
     50 H19        15.6442    9.8501    5.0889 H           1 MOL       0.0611
     51 H20        14.0301   11.1265    3.6912 H           1 MOL       0.0648
     52 H21        13.6810    8.3051    4.2969 H           1 MOL       0.0648
     53 H22        12.2797    9.9812    4.8533 H           1 MOL       0.2100
     54 H23        14.0530    7.6598    2.0454 H           1 MOL       0.0676
     55 H24        12.6760   10.2547    1.2084 H           1 MOL       0.0996
     56 H25        15.1457   10.3790   -5.3731 H           1 MOL       0.1820
     57 H26        14.8338    8.8648   -4.7257 H           1 MOL       0.1820
@<TRIPOS>BOND
     1     1     3   1
     2     9     1  am
     3     1    10   2
     4     2     8  ar
     5    13     2  ar
     6     3     7   1
     7     3    17   1
     8     4     5  ar
     9     4    13  ar
    10    29     4   1
    11     5     6  ar
    12    30     5   1
    13     6     8  ar
    14     6    31   1
    15     7    14   1
    16     7    15   1
    17     7    16   1
    18    18     9  am
    19    29    11   1
    20    11    30   2
    21    26    12   1
    22    18    19   2
    23    18    20   2
    24    21    18   1
    25    22    21   1
    26    23    22   1
    27    23    24   1
    28    28    23   1
    29    24    25   1
    30    26    24   1
    31    27    26   1
    32    27    28   1
    33    27    29   1
    34     2    32   1
    35     3    33   1
    36     9    34   1
    37    11    35   1
    38    12    36   1
    39    14    37   1
    40    14    38   1
    41    14    39   1
    42    15    40   1
    43    15    41   1
    44    15    42   1
    45    16    43   1
    46    16    44   1
    47    16    45   1
    48    17    46   1
    49    17    47   1
    50    17    48   1
    51    22    49   1
    52    22    50   1
    53    23    51   1
    54    24    52   1
    55    25    53   1
    56    26    54   1
    57    27    55   1
    58    31    56   1
    59    31    57   1
@<TRIPOS>SUBSTRUCTURE
     1  MOL      1

