@<TRIPOS>MOLECULE
3coy_ligand_062
    57    59
SMALL
GAST_HUCK
****
This file was generated by PARSER (from files_GN.cpp)

@<TRIPOS>ATOM
      1 C1         13.9217    9.6178    0.3987 C.2         1 MOL       0.2465
      2 C2         18.4188    6.3229    3.6189 C.ar        1 MOL       0.0533
      3 C3         13.7971    9.0634   -0.9524 C.3         1 MOL       0.0714
      4 C4         20.4132    7.5544    3.3899 C.ar        1 MOL       0.1613
      5 C5         21.1580    6.4478    3.7947 C.ar        1 MOL       0.1045
      6 C6         20.4893    5.2539    4.1145 C.ar        1 MOL       0.1298
      7 C7         14.3822    9.9692   -2.1154 C.3         1 MOL       0.0226
      8 N1         19.1309    5.2299    4.0140 N.ar        1 MOL      -0.2698
      9 N2         15.0612    9.5351    1.0691 N.am        1 MOL      -0.1294
     10 O1         12.9489   10.1752    0.8888 O.2         1 MOL      -0.3891
     11 C8         22.5097    8.0712    3.4030 C.2         1 MOL       0.1123
     12 O2         22.4374   10.2704    0.7633 O.3         1 MOL      -0.3836
     13 N3         19.0580    7.4810    3.3063 N.ar        1 MOL      -0.2714
     14 C9         13.8603    9.4404   -3.4950 C.3         1 MOL      -0.0527
     15 C10        13.9063   11.4575   -1.9833 C.3         1 MOL      -0.0527
     16 C11        15.9466    9.9627   -2.1409 C.3         1 MOL      -0.0527
     17 N4         14.3266    7.6809   -0.9584 N.4         1 MOL       0.2383
     18 S1         15.3494   10.1460    2.6184 S.o2        1 MOL       0.1859
     19 O1A        15.1471    8.9038    3.7413 O.2         1 MOL      -0.1218
     20 O2A        14.2838   11.3860    3.0502 O.2         1 MOL      -0.1218
     21 O5         16.9407   10.6961    2.7682 O.3         1 MOL      -0.2161
     22 C25        17.7950   10.9136    1.6498 C.3         1 MOL       0.1073
     23 C24        19.2065   11.2995    2.1403 C.3         1 MOL       0.1161
     24 C23        20.2452   11.3806    0.9938 C.3         1 MOL       0.1146
     25 O3         21.0318   12.5710    1.0866 O.3         1 MOL      -0.3864
     26 C22        21.0909   10.1169    1.2083 C.3         1 MOL       0.1385
     27 C21        20.9848    9.9043    2.7301 C.3         1 MOL       0.2010
     28 O4         19.6525   10.3023    3.0744 O.3         1 MOL      -0.3367
     29 N9         21.2748    8.5594    3.1499 N.pl3       1 MOL      -0.1919
     30 N7         22.4558    6.7857    3.7987 N.2         1 MOL      -0.2958
     31 N6         21.1544    4.1556    4.5082 N.pl3       1 MOL      -0.3152
     32 H1         17.4031    6.2678    3.5488 H           1 MOL       0.0996
     33 H2         12.7266    8.9422   -1.1484 H           1 MOL       0.1104
     34 H3         15.7854    9.0302    0.6636 H           1 MOL       0.2167
     35 H4         23.3794    8.6025    3.3293 H           1 MOL       0.1349
     36 H5         22.3670   10.7246   -0.1060 H           1 MOL       0.2101
     37 H6         14.2316   10.0511   -4.3215 H           1 MOL       0.0238
     38 H7         12.7680    9.4623   -3.5299 H           1 MOL       0.0238
     39 H8         14.1826    8.4134   -3.6693 H           1 MOL       0.0238
     40 H9         14.3063   11.9150   -1.0771 H           1 MOL       0.0238
     41 H10        12.8168   11.5150   -1.9422 H           1 MOL       0.0238
     42 H11        14.2476   12.0584   -2.8296 H           1 MOL       0.0238
     43 H12        16.3343    8.9489   -2.2355 H           1 MOL       0.0238
     44 H13        16.3544   10.3975   -1.2284 H           1 MOL       0.0238
     45 H14        16.3257   10.5432   -2.9857 H           1 MOL       0.0238
     46 H15        13.8232    7.1157   -0.2726 H           1 MOL       0.2015
     47 H16        15.3207    7.6724   -0.7230 H           1 MOL       0.2015
     48 H17        14.2017    7.2598   -1.8811 H           1 MOL       0.2015
     49 H18        17.3836   11.7164    1.0329 H           1 MOL       0.0611
     50 H19        17.8519    9.9987    1.0556 H           1 MOL       0.0611
     51 H20        19.1396   12.2542    2.6680 H           1 MOL       0.0648
     52 H21        19.7849   11.3652    0.0025 H           1 MOL       0.0648
     53 H22        21.4583   12.5401    1.9693 H           1 MOL       0.2100
     54 H23        20.6354    9.2749    0.6768 H           1 MOL       0.0676
     55 H24        21.6652   10.5932    3.2456 H           1 MOL       0.0996
     56 H25        20.6691    3.3444    4.7233 H           1 MOL       0.1820
     57 H26        22.1218    4.1713    4.5783 H           1 MOL       0.1820
@<TRIPOS>BOND
     1     1     3   1
     2     9     1  am
     3     1    10   2
     4     2     8  ar
     5    13     2  ar
     6     3     7   1
     7     3    17   1
     8     4     5  ar
     9     4    13  ar
    10    29     4   1
    11     5     6  ar
    12    30     5   1
    13     6     8  ar
    14     6    31   1
    15     7    14   1
    16     7    15   1
    17     7    16   1
    18    18     9  am
    19    29    11   1
    20    11    30   2
    21    26    12   1
    22    18    19   2
    23    18    20   2
    24    21    18   1
    25    22    21   1
    26    23    22   1
    27    23    24   1
    28    28    23   1
    29    24    25   1
    30    26    24   1
    31    27    26   1
    32    27    28   1
    33    27    29   1
    34     2    32   1
    35     3    33   1
    36     9    34   1
    37    11    35   1
    38    12    36   1
    39    14    37   1
    40    14    38   1
    41    14    39   1
    42    15    40   1
    43    15    41   1
    44    15    42   1
    45    16    43   1
    46    16    44   1
    47    16    45   1
    48    17    46   1
    49    17    47   1
    50    17    48   1
    51    22    49   1
    52    22    50   1
    53    23    51   1
    54    24    52   1
    55    25    53   1
    56    26    54   1
    57    27    55   1
    58    31    56   1
    59    31    57   1
@<TRIPOS>SUBSTRUCTURE
     1  MOL      1

