@<TRIPOS>MOLECULE
3coy_ligand_075
    57    59
SMALL
GAST_HUCK
****
This file was generated by PARSER (from files_GN.cpp)

@<TRIPOS>ATOM
      1 C1         17.5795    9.3902    5.5537 C.2         1 MOL       0.2465
      2 C2         20.2763    4.3581    1.1381 C.ar        1 MOL       0.0533
      3 C3         16.5149    9.6219    6.5204 C.3         1 MOL       0.0714
      4 C4         21.3669    6.3337    1.8145 C.ar        1 MOL       0.1613
      5 C5         21.8182    5.7025    2.9697 C.ar        1 MOL       0.1045
      6 C6         21.4534    4.3656    3.2042 C.ar        1 MOL       0.1298
      7 C7         15.1503   10.2239    6.0036 C.3         1 MOL       0.0226
      8 N1         20.6909    3.7339    2.2750 N.ar        1 MOL      -0.2698
      9 N2         18.8265    9.2672    5.9972 N.am        1 MOL      -0.1294
     10 O1         17.3077    9.1653    4.3797 O.2         1 MOL      -0.3891
     11 C8         22.5221    7.7258    2.9890 C.2         1 MOL       0.1123
     12 O2         19.6505    8.3644   -0.6874 O.3         1 MOL      -0.3836
     13 N3         20.6110    5.6600    0.9110 N.ar        1 MOL      -0.2714
     14 C9         14.2443    9.1467    5.3265 C.3         1 MOL      -0.0527
     15 C10        14.3784   10.8279    7.2226 C.3         1 MOL      -0.0527
     16 C11        15.3814   11.3977    4.9949 C.3         1 MOL      -0.0527
     17 N4         16.3664    8.3530    7.2664 N.4         1 MOL       0.2383
     18 S1         20.1489    8.8898    5.0253 S.o2        1 MOL       0.1859
     19 O1A        20.0173    7.2375    4.7028 O.2         1 MOL      -0.1218
     20 O2A        21.5831    9.2357    5.8468 O.2         1 MOL      -0.1218
     21 O5         19.9911    9.7169    3.5487 O.3         1 MOL      -0.2161
     22 C25        20.7060   10.8815    3.1239 C.3         1 MOL       0.1073
     23 C24        21.0434   10.8441    1.6017 C.3         1 MOL       0.1161
     24 C23        19.8742   10.4406    0.6742 C.3         1 MOL       0.1146
     25 O3         19.9820   11.0888   -0.5965 O.3         1 MOL      -0.3864
     26 C22        20.0298    8.9085    0.5783 C.3         1 MOL       0.1385
     27 C21        21.5290    8.6531    0.8853 C.3         1 MOL       0.2010
     28 O4         22.0946    9.9126    1.2923 O.3         1 MOL      -0.3367
     29 N9         21.7917    7.6140    1.8550 N.pl3       1 MOL      -0.1919
     30 N7         22.5402    6.5727    3.6808 N.2         1 MOL      -0.2958
     31 N6         21.7914    3.7334    4.3383 N.pl3       1 MOL      -0.3152
     32 H1         19.6944    3.8577    0.4649 H           1 MOL       0.0996
     33 H2         16.9102   10.3416    7.2465 H           1 MOL       0.1104
     34 H3         18.9709    9.3598    6.9554 H           1 MOL       0.2167
     35 H4         23.0187    8.5636    3.2958 H           1 MOL       0.1349
     36 H5         18.6869    8.1758   -0.6002 H           1 MOL       0.2101
     37 H6         13.2745    9.5677    5.0453 H           1 MOL       0.0238
     38 H7         14.0622    8.3064    6.0011 H           1 MOL       0.0238
     39 H8         14.7001    8.7547    4.4162 H           1 MOL       0.0238
     40 H9         14.9706   11.6159    7.7019 H           1 MOL       0.0238
     41 H10        14.1624   10.0631    7.9725 H           1 MOL       0.0238
     42 H11        13.4267   11.2704    6.9121 H           1 MOL       0.0238
     43 H12        15.7897   11.0310    4.0477 H           1 MOL       0.0238
     44 H13        16.0836   12.1318    5.4031 H           1 MOL       0.0238
     45 H14        14.4403   11.9103    4.7681 H           1 MOL       0.0238
     46 H15        17.2360    8.1575    7.7762 H           1 MOL       0.2015
     47 H16        16.1757    7.5708    6.6263 H           1 MOL       0.2015
     48 H17        15.6032    8.4270    7.9412 H           1 MOL       0.2015
     49 H18        21.6321   10.9891    3.6951 H           1 MOL       0.0611
     50 H19        20.0842   11.7587    3.3239 H           1 MOL       0.0611
     51 H20        21.4026   11.8397    1.3313 H           1 MOL       0.0648
     52 H21        18.9053   10.7186    1.1060 H           1 MOL       0.0648
     53 H22        20.9340   11.1378   -0.8083 H           1 MOL       0.2100
     54 H23        19.4057    8.4486    1.3494 H           1 MOL       0.0676
     55 H24        22.0411    8.3734   -0.0388 H           1 MOL       0.0996
     56 H25        21.4843    2.8247    4.4986 H           1 MOL       0.1820
     57 H26        22.2858    4.2003    5.0320 H           1 MOL       0.1820
@<TRIPOS>BOND
     1     1     3   1
     2     9     1  am
     3     1    10   2
     4     2     8  ar
     5    13     2  ar
     6     3     7   1
     7     3    17   1
     8     4     5  ar
     9     4    13  ar
    10    29     4   1
    11     5     6  ar
    12    30     5   1
    13     6     8  ar
    14     6    31   1
    15     7    14   1
    16     7    15   1
    17     7    16   1
    18    18     9  am
    19    29    11   1
    20    11    30   2
    21    26    12   1
    22    18    19   2
    23    18    20   2
    24    21    18   1
    25    22    21   1
    26    23    22   1
    27    23    24   1
    28    28    23   1
    29    24    25   1
    30    26    24   1
    31    27    26   1
    32    27    28   1
    33    27    29   1
    34     2    32   1
    35     3    33   1
    36     9    34   1
    37    11    35   1
    38    12    36   1
    39    14    37   1
    40    14    38   1
    41    14    39   1
    42    15    40   1
    43    15    41   1
    44    15    42   1
    45    16    43   1
    46    16    44   1
    47    16    45   1
    48    17    46   1
    49    17    47   1
    50    17    48   1
    51    22    49   1
    52    22    50   1
    53    23    51   1
    54    24    52   1
    55    25    53   1
    56    26    54   1
    57    27    55   1
    58    31    56   1
    59    31    57   1
@<TRIPOS>SUBSTRUCTURE
     1  MOL      1

