@<TRIPOS>MOLECULE
3coy_ligand_048
    57    59
SMALL
GAST_HUCK
****
This file was generated by PARSER (from files_GN.cpp)

@<TRIPOS>ATOM
      1 C1         16.5667    9.3350    6.0407 C.2         1 MOL       0.2465
      2 C2         24.3178   12.0170    5.1605 C.ar        1 MOL       0.0533
      3 C3         15.9706    8.9628    7.3256 C.3         1 MOL       0.0714
      4 C4         23.6066   13.0088    3.1459 C.ar        1 MOL       0.1613
      5 C5         24.5069   14.0581    3.3268 C.ar        1 MOL       0.1045
      6 C6         25.3198   14.0668    4.4768 C.ar        1 MOL       0.1298
      7 C7         14.3828    8.9651    7.3849 C.3         1 MOL       0.0226
      8 N1         25.1980   13.0361    5.3612 N.ar        1 MOL      -0.2698
      9 N2         16.8264    8.4337    5.0999 N.am        1 MOL      -0.1294
     10 O1         16.8177   10.5185    5.8477 O.2         1 MOL      -0.3891
     11 C8         23.4237   14.4050    1.5105 C.2         1 MOL       0.1123
     12 O2         22.8654   10.8226   -0.0217 O.3         1 MOL      -0.3836
     13 N3         23.5145   12.0072    4.0600 N.ar        1 MOL      -0.2714
     14 C9         13.7869   10.2015    6.6260 C.3         1 MOL      -0.0527
     15 C10        13.7824    7.6619    6.7610 C.3         1 MOL      -0.0527
     16 C11        13.9113    9.0599    8.8794 C.3         1 MOL      -0.0527
     17 N4         16.5593    7.6933    7.8070 N.4         1 MOL       0.2383
     18 S1         17.4949    8.7205    3.5723 S.o2        1 MOL       0.1859
     19 O1A        16.2295    8.5067    2.4690 O.2         1 MOL      -0.1218
     20 O2A        18.6884    7.5634    3.2776 O.2         1 MOL      -0.1218
     21 O5         18.0799   10.3038    3.4110 O.3         1 MOL      -0.2161
     22 C25        19.4505   10.7221    3.4704 C.3         1 MOL       0.1073
     23 C24        19.9114   11.3347    2.1146 C.3         1 MOL       0.1161
     24 C23        20.7219   10.3820    1.1860 C.3         1 MOL       0.1146
     25 O3         20.1579   10.3366   -0.1262 O.3         1 MOL      -0.3864
     26 C22        22.1290   11.0017    1.1857 C.3         1 MOL       0.1385
     27 C21        21.8380   12.4870    1.4527 C.3         1 MOL       0.2010
     28 O4         20.7319   12.4888    2.3628 O.3         1 MOL      -0.3367
     29 N9         22.9353   13.2427    2.0034 N.pl3       1 MOL      -0.1919
     30 N7         24.3827   14.9177    2.3032 N.2         1 MOL      -0.2958
     31 N6         26.1840   15.0614    4.7326 N.pl3       1 MOL      -0.3152
     32 H1         24.2535   11.2629    5.8451 H           1 MOL       0.0996
     33 H2         16.3106    9.7031    8.0555 H           1 MOL       0.1104
     34 H3         16.6187    7.5099    5.2987 H           1 MOL       0.2167
     35 H4         23.0980   14.8692    0.6627 H           1 MOL       0.1349
     36 H5         22.6975    9.8905   -0.2952 H           1 MOL       0.2101
     37 H6         12.7060   10.2507    6.7585 H           1 MOL       0.0238
     38 H7         13.9876   10.1330    5.5573 H           1 MOL       0.0238
     39 H8         14.2204   11.1299    6.9989 H           1 MOL       0.0238
     40 H9         14.1161    6.7793    7.3099 H           1 MOL       0.0238
     41 H10        14.0782    7.5490    5.7176 H           1 MOL       0.0238
     42 H11        12.6920    7.6907    6.8001 H           1 MOL       0.0238
     43 H12        14.2911    9.9695    9.3480 H           1 MOL       0.0238
     44 H13        14.2614    8.2080    9.4632 H           1 MOL       0.0238
     45 H14        12.8223    9.0781    8.9470 H           1 MOL       0.0238
     46 H15        17.5549    7.8342    7.9763 H           1 MOL       0.2015
     47 H16        16.4350    6.9472    7.1166 H           1 MOL       0.2015
     48 H17        16.1134    7.4087    8.6798 H           1 MOL       0.2015
     49 H18        20.1100    9.9072    3.7811 H           1 MOL       0.0611
     50 H19        19.4962   11.4845    4.2443 H           1 MOL       0.0611
     51 H20        19.0271   11.7115    1.5851 H           1 MOL       0.0648
     52 H21        20.7594    9.3535    1.5519 H           1 MOL       0.0648
     53 H22        19.2903    9.8879   -0.0048 H           1 MOL       0.2100
     54 H23        22.7005   10.5832    2.0112 H           1 MOL       0.0676
     55 H24        21.5027   12.9503    0.5096 H           1 MOL       0.0996
     56 H25        26.7232   15.0281    5.5355 H           1 MOL       0.1820
     57 H26        26.2771   15.8058    4.1198 H           1 MOL       0.1820
@<TRIPOS>BOND
     1     1     3   1
     2     9     1  am
     3     1    10   2
     4     2     8  ar
     5    13     2  ar
     6     3     7   1
     7     3    17   1
     8     4     5  ar
     9     4    13  ar
    10    29     4   1
    11     5     6  ar
    12    30     5   1
    13     6     8  ar
    14     6    31   1
    15     7    14   1
    16     7    15   1
    17     7    16   1
    18    18     9  am
    19    29    11   1
    20    11    30   2
    21    26    12   1
    22    18    19   2
    23    18    20   2
    24    21    18   1
    25    22    21   1
    26    23    22   1
    27    23    24   1
    28    28    23   1
    29    24    25   1
    30    26    24   1
    31    27    26   1
    32    27    28   1
    33    27    29   1
    34     2    32   1
    35     3    33   1
    36     9    34   1
    37    11    35   1
    38    12    36   1
    39    14    37   1
    40    14    38   1
    41    14    39   1
    42    15    40   1
    43    15    41   1
    44    15    42   1
    45    16    43   1
    46    16    44   1
    47    16    45   1
    48    17    46   1
    49    17    47   1
    50    17    48   1
    51    22    49   1
    52    22    50   1
    53    23    51   1
    54    24    52   1
    55    25    53   1
    56    26    54   1
    57    27    55   1
    58    31    56   1
    59    31    57   1
@<TRIPOS>SUBSTRUCTURE
     1  MOL      1

