@<TRIPOS>MOLECULE
3coy_ligand_060
    57    59
SMALL
GAST_HUCK
****
This file was generated by PARSER (from files_GN.cpp)

@<TRIPOS>ATOM
      1 C1         17.1572   10.9060   -0.1607 C.2         1 MOL       0.2465
      2 C2         23.0299    6.7607    5.5882 C.ar        1 MOL       0.0533
      3 C3         17.0953   10.7298   -1.6176 C.3         1 MOL       0.0714
      4 C4         22.4007    7.7211    3.5360 C.ar        1 MOL       0.1613
      5 C5         22.2009    6.4599    2.9805 C.ar        1 MOL       0.1045
      6 C6         22.4175    5.3273    3.7863 C.ar        1 MOL       0.1298
      7 C7         15.6450   10.8618   -2.2480 C.3         1 MOL       0.0226
      8 N1         22.8229    5.5151    5.0736 N.ar        1 MOL      -0.2698
      9 N2         16.8386    9.8927    0.6319 N.am        1 MOL      -0.1294
     10 O1         17.5175   11.9811    0.3066 O.2         1 MOL      -0.3891
     11 C8         21.7645    7.9464    1.4872 C.2         1 MOL       0.1123
     12 O2         22.6482   12.2632    1.7805 O.3         1 MOL      -0.3836
     13 N3         22.8166    7.8625    4.8213 N.ar        1 MOL      -0.2714
     14 C9         15.7323   11.0125   -3.8072 C.3         1 MOL      -0.0527
     15 C10        14.7893    9.5790   -1.9501 C.3         1 MOL      -0.0527
     16 C11        14.8607   12.0890   -1.6746 C.3         1 MOL      -0.0527
     17 N4         18.1011   11.6045   -2.2738 N.4         1 MOL       0.2383
     18 S1         16.7559    9.9345    2.3171 S.o2        1 MOL       0.1859
     19 O1A        15.7502    8.6610    2.7998 O.2         1 MOL      -0.1218
     20 O2A        16.1601   11.4306    2.8454 O.2         1 MOL      -0.1218
     21 O5         18.3011    9.6341    2.9652 O.3         1 MOL      -0.2161
     22 C25        18.9640   10.4733    3.9227 C.3         1 MOL       0.1073
     23 C24        20.2745   11.1190    3.3937 C.3         1 MOL       0.1161
     24 C23        20.4192   11.2411    1.8576 C.3         1 MOL       0.1146
     25 O3         19.9552   12.4930    1.3548 O.3         1 MOL      -0.3864
     26 C22        21.9260   11.0322    1.6520 C.3         1 MOL       0.1385
     27 C21        22.2805   10.0600    2.8012 C.3         1 MOL       0.2010
     28 O4         21.4300   10.4280    3.8946 O.3         1 MOL      -0.3367
     29 N9         22.1310    8.6405    2.5912 N.pl3       1 MOL      -0.1919
     30 N7         21.8219    6.6172    1.7053 N.2         1 MOL      -0.2958
     31 N6         22.2271    4.0851    3.3207 N.pl3       1 MOL      -0.3152
     32 H1         23.3440    6.8661    6.5548 H           1 MOL       0.0996
     33 H2         17.4532    9.7218   -1.8445 H           1 MOL       0.1104
     34 H3         16.5970    9.0597    0.2096 H           1 MOL       0.2167
     35 H4         21.4940    8.3499    0.5907 H           1 MOL       0.1349
     36 H5         22.4920   12.5696    2.6990 H           1 MOL       0.2101
     37 H6         14.7364   11.0222   -4.2605 H           1 MOL       0.0238
     38 H7         16.2926   10.1808   -4.2382 H           1 MOL       0.0238
     39 H8         16.2316   11.9430   -4.0837 H           1 MOL       0.0238
     40 H9         14.6346    9.4499   -0.8779 H           1 MOL       0.0238
     41 H10        15.2846    8.6862   -2.3335 H           1 MOL       0.0238
     42 H11        13.8057    9.6476   -2.4192 H           1 MOL       0.0238
     43 H12        15.4206   13.0127   -1.8074 H           1 MOL       0.0238
     44 H13        14.6649   11.9576   -0.6122 H           1 MOL       0.0238
     45 H14        13.8967   12.2029   -2.1739 H           1 MOL       0.0238
     46 H15        19.0104   11.4676   -1.8286 H           1 MOL       0.2015
     47 H16        17.8334   12.5920   -2.2035 H           1 MOL       0.2015
     48 H17        18.1844   11.3525   -3.2654 H           1 MOL       0.2015
     49 H18        19.1931    9.8549    4.7881 H           1 MOL       0.0611
     50 H19        18.2933   11.2635    4.2620 H           1 MOL       0.0611
     51 H20        20.3451   12.1239    3.8200 H           1 MOL       0.0648
     52 H21        19.8824   10.4448    1.3418 H           1 MOL       0.0648
     53 H22        19.6330   12.2800    0.4521 H           1 MOL       0.2100
     54 H23        22.1558   10.6098    0.6708 H           1 MOL       0.0676
     55 H24        23.3241   10.2338    3.0902 H           1 MOL       0.0996
     56 H25        22.3694    3.3264    3.9058 H           1 MOL       0.1820
     57 H26        21.9372    3.9444    2.4065 H           1 MOL       0.1820
@<TRIPOS>BOND
     1     1     3   1
     2     9     1  am
     3     1    10   2
     4     2     8  ar
     5    13     2  ar
     6     3     7   1
     7     3    17   1
     8     4     5  ar
     9     4    13  ar
    10    29     4   1
    11     5     6  ar
    12    30     5   1
    13     6     8  ar
    14     6    31   1
    15     7    14   1
    16     7    15   1
    17     7    16   1
    18    18     9  am
    19    29    11   1
    20    11    30   2
    21    26    12   1
    22    18    19   2
    23    18    20   2
    24    21    18   1
    25    22    21   1
    26    23    22   1
    27    23    24   1
    28    28    23   1
    29    24    25   1
    30    26    24   1
    31    27    26   1
    32    27    28   1
    33    27    29   1
    34     2    32   1
    35     3    33   1
    36     9    34   1
    37    11    35   1
    38    12    36   1
    39    14    37   1
    40    14    38   1
    41    14    39   1
    42    15    40   1
    43    15    41   1
    44    15    42   1
    45    16    43   1
    46    16    44   1
    47    16    45   1
    48    17    46   1
    49    17    47   1
    50    17    48   1
    51    22    49   1
    52    22    50   1
    53    23    51   1
    54    24    52   1
    55    25    53   1
    56    26    54   1
    57    27    55   1
    58    31    56   1
    59    31    57   1
@<TRIPOS>SUBSTRUCTURE
     1  MOL      1

