@<TRIPOS>MOLECULE
3coy_ligand_022
    57    59
SMALL
GAST_HUCK
****
This file was generated by PARSER (from files_GN.cpp)

@<TRIPOS>ATOM
      1 C1         17.4320    9.9568    4.5805 C.2         1 MOL       0.2465
      2 C2         24.2113   15.5851    1.1825 C.ar        1 MOL       0.0533
      3 C3         17.6289    8.5482    4.9259 C.3         1 MOL       0.0714
      4 C4         23.4108   13.4789    1.8739 C.ar        1 MOL       0.1613
      5 C5         24.0940   13.6001    3.0832 C.ar        1 MOL       0.1045
      6 C6         24.8368   14.7679    3.3297 C.ar        1 MOL       0.1298
      7 C7         19.1137    7.9966    4.8391 C.3         1 MOL       0.0226
      8 N1         24.8761   15.7196    2.3618 N.ar        1 MOL      -0.2698
      9 N2         17.3886   10.3090    3.3007 N.am        1 MOL      -0.1294
     10 O1         17.3118   10.7859    5.4791 O.2         1 MOL      -0.3891
     11 C8         23.0735   11.7157    3.0678 C.2         1 MOL       0.1123
     12 O2         22.0454    9.3554    0.9386 O.3         1 MOL      -0.3836
     13 N3         23.4723   14.4645    0.9450 N.ar        1 MOL      -0.2714
     14 C9         19.0786    6.4880    4.4191 C.3         1 MOL      -0.0527
     15 C10        19.9503    8.7743    3.7724 C.3         1 MOL      -0.0527
     16 C11        19.8729    8.0993    6.2061 C.3         1 MOL      -0.0527
     17 N4         17.0044    8.2770    6.2371 N.4         1 MOL       0.2383
     18 S1         16.9948   11.8196    2.6597 S.o2        1 MOL       0.1859
     19 O1A        16.5823   12.8983    3.8963 O.2         1 MOL      -0.1218
     20 O2A        15.7143   11.6064    1.5743 O.2         1 MOL      -0.1218
     21 O5         18.3390   12.4418    1.8319 O.3         1 MOL      -0.2161
     22 C25        18.4457   12.5751    0.4050 C.3         1 MOL       0.1073
     23 C24        19.8009   12.0448   -0.1285 C.3         1 MOL       0.1161
     24 C23        20.0235   10.5202    0.0563 C.3         1 MOL       0.1146
     25 O3         20.3633    9.8609   -1.1680 O.3         1 MOL      -0.3864
     26 C22        21.1852   10.4840    1.0579 C.3         1 MOL       0.1385
     27 C21        21.9226   11.8133    0.8141 C.3         1 MOL       0.2010
     28 O4         20.8548   12.7382    0.5682 O.3         1 MOL      -0.3367
     29 N9         22.7603   12.3022    1.8831 N.pl3       1 MOL      -0.1919
     30 N7         23.8720   12.5003    3.8099 N.2         1 MOL      -0.2958
     31 N6         25.4844   14.9674    4.4905 N.pl3       1 MOL      -0.3152
     32 H1         24.2634   16.3229    0.4825 H           1 MOL       0.0996
     33 H2         17.0190    7.9714    4.2212 H           1 MOL       0.1104
     34 H3         17.5432    9.6027    2.6493 H           1 MOL       0.2167
     35 H4         22.7556   10.7963    3.3844 H           1 MOL       0.1349
     36 H5         21.4465    8.5795    0.9662 H           1 MOL       0.2101
     37 H6         20.0871    6.0712    4.3656 H           1 MOL       0.0238
     38 H7         18.6124    6.3699    3.4401 H           1 MOL       0.0238
     39 H8         18.5120    5.8938    5.1385 H           1 MOL       0.0238
     40 H9         20.0763    9.8113    4.0856 H           1 MOL       0.0238
     41 H10        19.4546    8.7624    2.7971 H           1 MOL       0.0238
     42 H11        20.9443    8.3383    3.6555 H           1 MOL       0.0238
     43 H12        19.4228    7.4460    6.9558 H           1 MOL       0.0238
     44 H13        19.8556    9.1225    6.5835 H           1 MOL       0.0238
     45 H14        20.9161    7.7942    6.0935 H           1 MOL       0.0238
     46 H15        16.0488    8.6421    6.2549 H           1 MOL       0.2015
     47 H16        17.5479    8.7127    6.9873 H           1 MOL       0.2015
     48 H17        16.9770    7.2720    6.3931 H           1 MOL       0.2015
     49 H18        18.3737   13.6406    0.1738 H           1 MOL       0.0611
     50 H19        17.6301   12.0604   -0.1120 H           1 MOL       0.0611
     51 H20        19.8700   12.2911   -1.1935 H           1 MOL       0.0648
     52 H21        19.1481   10.0166    0.4754 H           1 MOL       0.0648
     53 H22        19.6746   10.1342   -1.8122 H           1 MOL       0.2100
     54 H23        20.7633   10.4989    2.0621 H           1 MOL       0.0676
     55 H24        22.5338   11.7244   -0.0940 H           1 MOL       0.0996
     56 H25        25.9632   15.7988    4.6443 H           1 MOL       0.1820
     57 H26        25.4441   14.2978    5.1921 H           1 MOL       0.1820
@<TRIPOS>BOND
     1     1     3   1
     2     9     1  am
     3     1    10   2
     4     2     8  ar
     5    13     2  ar
     6     3     7   1
     7     3    17   1
     8     4     5  ar
     9     4    13  ar
    10    29     4   1
    11     5     6  ar
    12    30     5   1
    13     6     8  ar
    14     6    31   1
    15     7    14   1
    16     7    15   1
    17     7    16   1
    18    18     9  am
    19    29    11   1
    20    11    30   2
    21    26    12   1
    22    18    19   2
    23    18    20   2
    24    21    18   1
    25    22    21   1
    26    23    22   1
    27    23    24   1
    28    28    23   1
    29    24    25   1
    30    26    24   1
    31    27    26   1
    32    27    28   1
    33    27    29   1
    34     2    32   1
    35     3    33   1
    36     9    34   1
    37    11    35   1
    38    12    36   1
    39    14    37   1
    40    14    38   1
    41    14    39   1
    42    15    40   1
    43    15    41   1
    44    15    42   1
    45    16    43   1
    46    16    44   1
    47    16    45   1
    48    17    46   1
    49    17    47   1
    50    17    48   1
    51    22    49   1
    52    22    50   1
    53    23    51   1
    54    24    52   1
    55    25    53   1
    56    26    54   1
    57    27    55   1
    58    31    56   1
    59    31    57   1
@<TRIPOS>SUBSTRUCTURE
     1  MOL      1

