@<TRIPOS>MOLECULE
3coy_ligand_061
    57    59
SMALL
GAST_HUCK
****
This file was generated by PARSER (from files_GN.cpp)

@<TRIPOS>ATOM
      1 C1         19.1534   10.3165    3.8380 C.2         1 MOL       0.2465
      2 C2         13.6550    8.4703   -4.4673 C.ar        1 MOL       0.0533
      3 C3         20.3172   10.9163    3.1826 C.3         1 MOL       0.0714
      4 C4         14.6684    9.8078   -2.8084 C.ar        1 MOL       0.1613
      5 C5         15.3620   10.5110   -3.7914 C.ar        1 MOL       0.1045
      6 C6         15.2077   10.1478   -5.1381 C.ar        1 MOL       0.1298
      7 C7         21.7491   10.3208    3.5174 C.3         1 MOL       0.0226
      8 N1         14.3454    9.1355   -5.4370 N.ar        1 MOL      -0.2698
      9 N2         18.0953   11.0625    4.1177 N.am        1 MOL      -0.1294
     10 O1         19.1055    9.1074    4.0437 O.2         1 MOL      -0.3891
     11 C8         15.8495   11.3579   -1.8816 C.2         1 MOL       0.1123
     12 O2         12.4229    8.8281   -0.2216 O.3         1 MOL      -0.3836
     13 N3         13.8201    8.8063   -3.1576 N.ar        1 MOL      -0.2714
     14 C9         22.8514   11.1604    2.7896 C.3         1 MOL      -0.0527
     15 C10        22.0178   10.4245    5.0560 C.3         1 MOL      -0.0527
     16 C11        21.9319    8.8319    3.0586 C.3         1 MOL      -0.0527
     17 N4         20.0402   10.9557    1.7319 N.4         1 MOL       0.2383
     18 S1         16.6471   10.4782    4.7617 S.o2        1 MOL       0.1859
     19 O1A        15.4384   11.6298    4.4946 O.2         1 MOL      -0.1218
     20 O2A        16.7931   10.2044    6.4212 O.2         1 MOL      -0.1218
     21 O5         16.2460    8.9999    4.0297 O.3         1 MOL      -0.2161
     22 C25        16.4485    8.7101    2.6452 C.3         1 MOL       0.1073
     23 C24        15.2660    9.2263    1.7837 C.3         1 MOL       0.1161
     24 C23        14.2562    8.1482    1.3333 C.3         1 MOL       0.1146
     25 O3         13.2057    8.0003    2.2884 O.3         1 MOL      -0.3864
     26 C22        13.8259    8.6383   -0.0674 C.3         1 MOL       0.1385
     27 C21        14.5976    9.9650   -0.2822 C.3         1 MOL       0.2010
     28 O4         15.7435    9.8136    0.5678 O.3         1 MOL      -0.3367
     29 N9         15.0120   10.3279   -1.6135 N.pl3       1 MOL      -0.1919
     30 N7         16.0753   11.4797   -3.1970 N.2         1 MOL      -0.2958
     31 N6         15.8965   10.7581   -6.1148 N.pl3       1 MOL      -0.3152
     32 H1         13.0182    7.7074   -4.7191 H           1 MOL       0.0996
     33 H2         20.3381   11.9646    3.4939 H           1 MOL       0.1104
     34 H3         18.1493   12.0160    3.9421 H           1 MOL       0.2167
     35 H4         16.2684   11.9775   -1.1804 H           1 MOL       0.1349
     36 H5         12.1680    9.4601    0.4853 H           1 MOL       0.2101
     37 H6         23.8512   10.8189    3.0633 H           1 MOL       0.0238
     38 H7         22.7720   12.2162    3.0551 H           1 MOL       0.0238
     39 H8         22.7591   11.0736    1.7087 H           1 MOL       0.0238
     40 H9         21.3096    9.8157    5.6209 H           1 MOL       0.0238
     41 H10        21.9216   11.4578    5.3951 H           1 MOL       0.0238
     42 H11        23.0226   10.0773    5.3038 H           1 MOL       0.0238
     43 H12        21.7589    8.7279    1.9867 H           1 MOL       0.0238
     44 H13        21.2585    8.1510    3.5750 H           1 MOL       0.0238
     45 H14        22.9466    8.4847    3.2638 H           1 MOL       0.0238
     46 H15        19.1275   11.3875    1.5636 H           1 MOL       0.2015
     47 H16        20.0362   10.0075    1.3469 H           1 MOL       0.2015
     48 H17        20.7524   11.5087    1.2567 H           1 MOL       0.2015
     49 H18        16.5668    7.6306    2.5515 H           1 MOL       0.0611
     50 H19        17.3783    9.1510    2.2911 H           1 MOL       0.0611
     51 H20        14.7367   10.0098    2.3433 H           1 MOL       0.0648
     52 H21        14.7463    7.1730    1.2308 H           1 MOL       0.0648
     53 H22        12.8500    7.0966    2.1492 H           1 MOL       0.2100
     54 H23        14.1527    7.8870   -0.7945 H           1 MOL       0.0676
     55 H24        13.9982   10.8004    0.1019 H           1 MOL       0.0996
     56 H25        15.7737   10.4888   -7.0364 H           1 MOL       0.1820
     57 H26        16.5735   11.4127   -5.8908 H           1 MOL       0.1820
@<TRIPOS>BOND
     1     1     3   1
     2     9     1  am
     3     1    10   2
     4     2     8  ar
     5    13     2  ar
     6     3     7   1
     7     3    17   1
     8     4     5  ar
     9     4    13  ar
    10    29     4   1
    11     5     6  ar
    12    30     5   1
    13     6     8  ar
    14     6    31   1
    15     7    14   1
    16     7    15   1
    17     7    16   1
    18    18     9  am
    19    29    11   1
    20    11    30   2
    21    26    12   1
    22    18    19   2
    23    18    20   2
    24    21    18   1
    25    22    21   1
    26    23    22   1
    27    23    24   1
    28    28    23   1
    29    24    25   1
    30    26    24   1
    31    27    26   1
    32    27    28   1
    33    27    29   1
    34     2    32   1
    35     3    33   1
    36     9    34   1
    37    11    35   1
    38    12    36   1
    39    14    37   1
    40    14    38   1
    41    14    39   1
    42    15    40   1
    43    15    41   1
    44    15    42   1
    45    16    43   1
    46    16    44   1
    47    16    45   1
    48    17    46   1
    49    17    47   1
    50    17    48   1
    51    22    49   1
    52    22    50   1
    53    23    51   1
    54    24    52   1
    55    25    53   1
    56    26    54   1
    57    27    55   1
    58    31    56   1
    59    31    57   1
@<TRIPOS>SUBSTRUCTURE
     1  MOL      1

