@<TRIPOS>MOLECULE
3coy_ligand_033
    57    59
SMALL
GAST_HUCK
****
This file was generated by PARSER (from files_GN.cpp)

@<TRIPOS>ATOM
      1 C1         19.5818   11.3010   -0.8259 C.2         1 MOL       0.2465
      2 C2         18.2494    5.5817    3.6285 C.ar        1 MOL       0.0533
      3 C3         18.5658   10.4991   -1.5117 C.3         1 MOL       0.0714
      4 C4         20.2687    6.3479    4.5541 C.ar        1 MOL       0.1613
      5 C5         20.8410    5.0880    4.3958 C.ar        1 MOL       0.1045
      6 C6         20.0649    4.0566    3.8413 C.ar        1 MOL       0.1298
      7 C7         17.1128   10.5749   -0.8883 C.3         1 MOL       0.0226
      8 N1         18.7855    4.3387    3.4720 N.ar        1 MOL      -0.2698
      9 N2         20.3193   10.7628    0.1339 N.am        1 MOL      -0.1294
     10 O1         19.7331   12.4770   -1.1369 O.2         1 MOL      -0.3891
     11 C8         22.3274    6.4142    5.1943 C.2         1 MOL       0.1123
     12 O2         21.1684   10.0792    7.2234 O.3         1 MOL      -0.3836
     13 N3         18.9903    6.5859    4.1665 N.ar        1 MOL      -0.2714
     14 C9         16.4321   11.9625   -1.1273 C.3         1 MOL      -0.0527
     15 C10        16.1991    9.4791   -1.5376 C.3         1 MOL      -0.0527
     16 C11        17.1714   10.3036    0.6536 C.3         1 MOL      -0.0527
     17 N4         18.5878   10.8510   -2.9439 N.4         1 MOL       0.2383
     18 S1         21.4234   11.6029    1.0929 S.o2        1 MOL       0.1859
     19 O1A        20.6119   12.5688    2.2171 O.2         1 MOL      -0.1218
     20 O2A        22.2806   12.6744    0.1070 O.2         1 MOL      -0.1218
     21 O5         22.5053   10.5235    1.8208 O.3         1 MOL      -0.2161
     22 C25        23.1417   10.6854    3.0909 C.3         1 MOL       0.1073
     23 C24        22.2206   10.3465    4.2907 C.3         1 MOL       0.1161
     24 C23        22.9846    9.9871    5.5812 C.3         1 MOL       0.1146
     25 O3         23.4922   11.1376    6.2508 O.3         1 MOL      -0.3864
     26 C22        21.9306    9.2090    6.3837 C.3         1 MOL       0.1385
     27 C21        21.0586    8.5806    5.2613 C.3         1 MOL       0.2010
     28 O4         21.4285    9.1901    4.0132 O.3         1 MOL      -0.3367
     29 N9         21.2049    7.1621    5.0712 N.pl3       1 MOL      -0.1919
     30 N7         22.1161    5.1457    4.8005 N.2         1 MOL      -0.2958
     31 N6         20.5599    2.8246    3.6556 N.pl3       1 MOL      -0.3152
     32 H1         17.2922    5.7617    3.3308 H           1 MOL       0.0996
     33 H2         18.8797    9.4490   -1.4743 H           1 MOL       0.1104
     34 H3         20.1794    9.8256    0.3436 H           1 MOL       0.2167
     35 H4         23.2354    6.7545    5.5180 H           1 MOL       0.1349
     36 H5         20.5394    9.4964    7.7015 H           1 MOL       0.2101
     37 H6         15.4420   11.9910   -0.6664 H           1 MOL       0.0238
     38 H7         16.3082   12.1572   -2.1939 H           1 MOL       0.0238
     39 H8         17.0225   12.7733   -0.6995 H           1 MOL       0.0238
     40 H9         16.6480    8.4888   -1.4450 H           1 MOL       0.0238
     41 H10        16.0393    9.6751   -2.5998 H           1 MOL       0.0238
     42 H11        15.2178    9.4511   -1.0569 H           1 MOL       0.0238
     43 H12        17.6968   11.1081    1.1729 H           1 MOL       0.0238
     44 H13        17.6963    9.3690    0.8620 H           1 MOL       0.0238
     45 H14        16.1685   10.2340    1.0820 H           1 MOL       0.0238
     46 H15        19.5205   10.6763   -3.3230 H           1 MOL       0.2015
     47 H16        18.3552   11.8402   -3.0613 H           1 MOL       0.2015
     48 H17        17.9113   10.2848   -3.4576 H           1 MOL       0.2015
     49 H18        23.5297   11.7029    3.1888 H           1 MOL       0.0611
     50 H19        23.9931   10.0045    3.0868 H           1 MOL       0.0611
     51 H20        21.5525   11.1927    4.4831 H           1 MOL       0.0648
     52 H21        23.8219    9.3171    5.3588 H           1 MOL       0.0648
     53 H22        24.1294   11.5379    5.6206 H           1 MOL       0.2100
     54 H23        22.4006    8.4585    7.0247 H           1 MOL       0.0676
     55 H24        20.0065    8.8255    5.4494 H           1 MOL       0.0996
     56 H25        20.0073    2.1322    3.2594 H           1 MOL       0.1820
     57 H26        21.4692    2.6225    3.9243 H           1 MOL       0.1820
@<TRIPOS>BOND
     1     1     3   1
     2     9     1  am
     3     1    10   2
     4     2     8  ar
     5    13     2  ar
     6     3     7   1
     7     3    17   1
     8     4     5  ar
     9     4    13  ar
    10    29     4   1
    11     5     6  ar
    12    30     5   1
    13     6     8  ar
    14     6    31   1
    15     7    14   1
    16     7    15   1
    17     7    16   1
    18    18     9  am
    19    29    11   1
    20    11    30   2
    21    26    12   1
    22    18    19   2
    23    18    20   2
    24    21    18   1
    25    22    21   1
    26    23    22   1
    27    23    24   1
    28    28    23   1
    29    24    25   1
    30    26    24   1
    31    27    26   1
    32    27    28   1
    33    27    29   1
    34     2    32   1
    35     3    33   1
    36     9    34   1
    37    11    35   1
    38    12    36   1
    39    14    37   1
    40    14    38   1
    41    14    39   1
    42    15    40   1
    43    15    41   1
    44    15    42   1
    45    16    43   1
    46    16    44   1
    47    16    45   1
    48    17    46   1
    49    17    47   1
    50    17    48   1
    51    22    49   1
    52    22    50   1
    53    23    51   1
    54    24    52   1
    55    25    53   1
    56    26    54   1
    57    27    55   1
    58    31    56   1
    59    31    57   1
@<TRIPOS>SUBSTRUCTURE
     1  MOL      1

