@<TRIPOS>MOLECULE
3coy_ligand_016
    57    59
SMALL
GAST_HUCK
****
This file was generated by PARSER (from files_GN.cpp)

@<TRIPOS>ATOM
      1 C1         15.9009    9.7678    4.6150 C.2         1 MOL       0.2465
      2 C2         18.7647    7.6619    3.7470 C.ar        1 MOL       0.0533
      3 C3         16.1062    9.7241    6.0658 C.3         1 MOL       0.0714
      4 C4         20.1008    9.3655    2.7977 C.ar        1 MOL       0.1613
      5 C5         20.6641    9.6189    4.0455 C.ar        1 MOL       0.1045
      6 C6         20.2340    8.8817    5.1632 C.ar        1 MOL       0.1298
      7 C7         14.7935    9.6495    6.9507 C.3         1 MOL       0.0226
      8 N1         19.2841    7.9245    4.9825 N.ar        1 MOL      -0.2698
      9 N2         16.3722   10.7718    3.8888 N.am        1 MOL      -0.1294
     10 O1         15.3639    8.8133    4.0679 O.2         1 MOL      -0.3891
     11 C8         21.5388   10.9589    2.6220 C.2         1 MOL       0.1123
     12 O2         20.0513    8.3206   -0.8288 O.3         1 MOL      -0.3836
     13 N3         19.1576    8.3951    2.6688 N.ar        1 MOL      -0.2714
     14 C9         15.1704    9.3852    8.4488 C.3         1 MOL      -0.0527
     15 C10        14.0182   11.0099    6.8866 C.3         1 MOL      -0.0527
     16 C11        13.8240    8.4976    6.5147 C.3         1 MOL      -0.0527
     17 N4         17.0606    8.6286    6.3467 N.4         1 MOL       0.2383
     18 S1         16.1379   10.9851    2.2295 S.o2        1 MOL       0.1859
     19 O1A        14.9357   12.1485    1.9933 O.2         1 MOL      -0.1218
     20 O2A        15.5682    9.5815    1.4765 O.2         1 MOL      -0.1218
     21 O5         17.5565   11.5351    1.4730 O.3         1 MOL      -0.2161
     22 C25        17.5976   12.1395    0.1730 C.3         1 MOL       0.1073
     23 C24        18.8728   11.7704   -0.6382 C.3         1 MOL       0.1161
     24 C23        18.8611   10.3992   -1.3432 C.3         1 MOL       0.1146
     25 O3         19.7078   10.4200   -2.4988 O.3         1 MOL      -0.3864
     26 C22        19.4383    9.4814   -0.2601 C.3         1 MOL       0.1385
     27 C21        20.4371   10.4020    0.4901 C.3         1 MOL       0.2010
     28 O4         20.0152   11.7555    0.2308 O.3         1 MOL      -0.3367
     29 N9         20.6440   10.2277    1.9110 N.pl3       1 MOL      -0.1919
     30 N7         21.5549   10.6104    3.9213 N.2         1 MOL      -0.2958
     31 N6         20.7087    9.1430    6.3953 N.pl3       1 MOL      -0.3152
     32 H1         18.0469    6.9427    3.6386 H           1 MOL       0.0996
     33 H2         16.6407   10.6350    6.3600 H           1 MOL       0.1104
     34 H3         16.8327   11.4853    4.3563 H           1 MOL       0.2167
     35 H4         22.1388   11.6952    2.2388 H           1 MOL       0.1349
     36 H5         19.8841    7.6021   -0.1836 H           1 MOL       0.2101
     37 H6         14.2863    9.4295    9.0895 H           1 MOL       0.0238
     38 H7         15.8870   10.1267    8.8114 H           1 MOL       0.0238
     39 H8         15.6114    8.3934    8.5650 H           1 MOL       0.0238
     40 H9         13.7352   11.2552    5.8601 H           1 MOL       0.0238
     41 H10        14.6360   11.8255    7.2732 H           1 MOL       0.0238
     42 H11        13.1028   10.9682    7.4839 H           1 MOL       0.0238
     43 H12        14.3611    7.5498    6.4353 H           1 MOL       0.0238
     44 H13        13.3579    8.7116    5.5513 H           1 MOL       0.0238
     45 H14        13.0187    8.3676    7.2413 H           1 MOL       0.0238
     46 H15        17.8534    8.6897    5.6982 H           1 MOL       0.2015
     47 H16        16.6093    7.7154    6.2221 H           1 MOL       0.2015
     48 H17        17.4293    8.7226    7.3026 H           1 MOL       0.2015
     49 H18        17.6075   13.2192    0.3427 H           1 MOL       0.0611
     50 H19        16.7014   11.9078   -0.4115 H           1 MOL       0.0611
     51 H20        19.0065   12.5498   -1.3918 H           1 MOL       0.0648
     52 H21        17.8562   10.0885   -1.6440 H           1 MOL       0.0648
     53 H22        19.1814   10.8457   -3.2092 H           1 MOL       0.2100
     54 H23        18.6093    9.1784    0.3809 H           1 MOL       0.0676
     55 H24        21.4097   10.2896   -0.0003 H           1 MOL       0.0996
     56 H25        20.3589    8.6713    7.1699 H           1 MOL       0.1820
     57 H26        21.3422    9.8680    6.5270 H           1 MOL       0.1820
@<TRIPOS>BOND
     1     1     3   1
     2     9     1  am
     3     1    10   2
     4     2     8  ar
     5    13     2  ar
     6     3     7   1
     7     3    17   1
     8     4     5  ar
     9     4    13  ar
    10    29     4   1
    11     5     6  ar
    12    30     5   1
    13     6     8  ar
    14     6    31   1
    15     7    14   1
    16     7    15   1
    17     7    16   1
    18    18     9  am
    19    29    11   1
    20    11    30   2
    21    26    12   1
    22    18    19   2
    23    18    20   2
    24    21    18   1
    25    22    21   1
    26    23    22   1
    27    23    24   1
    28    28    23   1
    29    24    25   1
    30    26    24   1
    31    27    26   1
    32    27    28   1
    33    27    29   1
    34     2    32   1
    35     3    33   1
    36     9    34   1
    37    11    35   1
    38    12    36   1
    39    14    37   1
    40    14    38   1
    41    14    39   1
    42    15    40   1
    43    15    41   1
    44    15    42   1
    45    16    43   1
    46    16    44   1
    47    16    45   1
    48    17    46   1
    49    17    47   1
    50    17    48   1
    51    22    49   1
    52    22    50   1
    53    23    51   1
    54    24    52   1
    55    25    53   1
    56    26    54   1
    57    27    55   1
    58    31    56   1
    59    31    57   1
@<TRIPOS>SUBSTRUCTURE
     1  MOL      1

