@<TRIPOS>MOLECULE
3coy_ligand_050
    57    59
SMALL
GAST_HUCK
****
This file was generated by PARSER (from files_GN.cpp)

@<TRIPOS>ATOM
      1 C1         19.5290   11.3671   -0.8852 C.2         1 MOL       0.2465
      2 C2         17.6030   11.8752    3.7798 C.ar        1 MOL       0.0533
      3 C3         18.5232   10.5475   -1.5719 C.3         1 MOL       0.0714
      4 C4         18.2155    9.8548    4.8215 C.ar        1 MOL       0.1613
      5 C5         17.0422    9.8680    5.5715 C.ar        1 MOL       0.1045
      6 C6         16.1323   10.9210    5.3883 C.ar        1 MOL       0.1298
      7 C7         17.0675   10.5976   -0.9528 C.3         1 MOL       0.0226
      8 N1         16.4449   11.9015    4.4956 N.ar        1 MOL      -0.2698
      9 N2         20.3460   10.8105   -0.0052 N.am        1 MOL      -0.1294
     10 O1         19.5790   12.5730   -1.0886 O.2         1 MOL      -0.3891
     11 C8         18.1913    8.1415    6.1368 C.2         1 MOL       0.1123
     12 O2         19.9274    6.2291    3.4897 O.3         1 MOL      -0.3836
     13 N3         18.4833   10.8491    3.9370 N.ar        1 MOL      -0.2714
     14 C9         16.3666   11.9744   -1.1952 C.3         1 MOL      -0.0527
     15 C10        16.1751    9.4821   -1.5940 C.3         1 MOL      -0.0527
     16 C11        17.1278   10.3401    0.5882 C.3         1 MOL      -0.0527
     17 N4         18.5254   10.9027   -3.0028 N.4         1 MOL       0.2383
     18 S1         21.4569   11.6229    0.9646 S.o2        1 MOL       0.1859
     19 O1A        20.6431   12.4939    2.1647 O.2         1 MOL      -0.1218
     20 O2A        22.2875   12.7497    0.0141 O.2         1 MOL      -0.1218
     21 O5         22.5325   10.4784    1.6048 O.3         1 MOL      -0.2161
     22 C25        22.8498   10.2507    2.9788 C.3         1 MOL       0.1073
     23 C24        22.1162    9.0226    3.5960 C.3         1 MOL       0.1161
     24 C23        21.4458    8.0115    2.6236 C.3         1 MOL       0.1146
     25 O3         22.2865    6.8875    2.3598 O.3         1 MOL      -0.3864
     26 C22        20.1193    7.6344    3.3215 C.3         1 MOL       0.1385
     27 C21        20.1994    8.3535    4.6837 C.3         1 MOL       0.2010
     28 O4         21.0591    9.4759    4.4517 O.3         1 MOL      -0.3367
     29 N9         18.9220    8.7702    5.1886 N.pl3       1 MOL      -0.1919
     30 N7         17.0419    8.7986    6.3802 N.2         1 MOL      -0.2958
     31 N6         14.9816   10.9823    6.0764 N.pl3       1 MOL      -0.3152
     32 H1         17.8091   12.6273    3.1222 H           1 MOL       0.0996
     33 H2         18.8637    9.5051   -1.5385 H           1 MOL       0.1104
     34 H3         20.2693    9.8549    0.1389 H           1 MOL       0.2167
     35 H4         18.4621    7.2833    6.6204 H           1 MOL       0.1349
     36 H5         19.8175    5.8780    2.5801 H           1 MOL       0.2101
     37 H6         15.3886   11.9983   -0.7114 H           1 MOL       0.0238
     38 H7         16.2128   12.1522   -2.2603 H           1 MOL       0.0238
     39 H8         16.9597   12.7968   -0.7943 H           1 MOL       0.0238
     40 H9         16.6238    8.4979   -1.4612 H           1 MOL       0.0238
     41 H10        16.0416    9.6464   -2.6630 H           1 MOL       0.0238
     42 H11        15.1844    9.4649   -1.1367 H           1 MOL       0.0238
     43 H12        17.6615   11.1500    1.0848 H           1 MOL       0.0238
     44 H13        17.6487    9.4068    0.8088 H           1 MOL       0.0238
     45 H14        16.1277   10.2875    1.0216 H           1 MOL       0.0238
     46 H15        19.4552   10.7533   -3.3965 H           1 MOL       0.2015
     47 H16        18.2662   11.8857   -3.1125 H           1 MOL       0.2015
     48 H17        17.8564   10.3212   -3.5087 H           1 MOL       0.2015
     49 H18        22.6363   11.1473    3.5622 H           1 MOL       0.0611
     50 H19        23.9275   10.0924    3.0353 H           1 MOL       0.0611
     51 H20        22.8316    8.4870    4.2306 H           1 MOL       0.0648
     52 H21        21.2126    8.4743    1.6633 H           1 MOL       0.0648
     53 H22        22.4560    6.4709    3.2310 H           1 MOL       0.2100
     54 H23        19.2776    8.0257    2.7412 H           1 MOL       0.0676
     55 H24        20.6902    7.7017    5.4182 H           1 MOL       0.0996
     56 H25        14.3682   11.7196    5.9328 H           1 MOL       0.1820
     57 H26        14.7606   10.2880    6.7179 H           1 MOL       0.1820
@<TRIPOS>BOND
     1     1     3   1
     2     9     1  am
     3     1    10   2
     4     2     8  ar
     5    13     2  ar
     6     3     7   1
     7     3    17   1
     8     4     5  ar
     9     4    13  ar
    10    29     4   1
    11     5     6  ar
    12    30     5   1
    13     6     8  ar
    14     6    31   1
    15     7    14   1
    16     7    15   1
    17     7    16   1
    18    18     9  am
    19    29    11   1
    20    11    30   2
    21    26    12   1
    22    18    19   2
    23    18    20   2
    24    21    18   1
    25    22    21   1
    26    23    22   1
    27    23    24   1
    28    28    23   1
    29    24    25   1
    30    26    24   1
    31    27    26   1
    32    27    28   1
    33    27    29   1
    34     2    32   1
    35     3    33   1
    36     9    34   1
    37    11    35   1
    38    12    36   1
    39    14    37   1
    40    14    38   1
    41    14    39   1
    42    15    40   1
    43    15    41   1
    44    15    42   1
    45    16    43   1
    46    16    44   1
    47    16    45   1
    48    17    46   1
    49    17    47   1
    50    17    48   1
    51    22    49   1
    52    22    50   1
    53    23    51   1
    54    24    52   1
    55    25    53   1
    56    26    54   1
    57    27    55   1
    58    31    56   1
    59    31    57   1
@<TRIPOS>SUBSTRUCTURE
     1  MOL      1

