@<TRIPOS>MOLECULE
3coy_ligand_011
    57    59
SMALL
GAST_HUCK
****
This file was generated by PARSER (from files_GN.cpp)

@<TRIPOS>ATOM
      1 C1         16.6819    9.4044    4.2654 C.2         1 MOL       0.2465
      2 C2         23.4221   12.6547    2.8847 C.ar        1 MOL       0.0533
      3 C3         17.2852    8.5947    5.3317 C.3         1 MOL       0.0714
      4 C4         22.1996   10.7950    2.1275 C.ar        1 MOL       0.1613
      5 C5         22.6883   10.0280    3.1829 C.ar        1 MOL       0.1045
      6 C6         23.5348   10.6283    4.1328 C.ar        1 MOL       0.1298
      7 C7         18.7180    7.9940    5.0203 C.3         1 MOL       0.0226
      8 N1         23.8788   11.9319    3.9470 N.ar        1 MOL      -0.2698
      9 N2         17.1996   10.5780    3.9302 N.am        1 MOL      -0.1294
     10 O1         15.7241    8.9461    3.6657 O.2         1 MOL      -0.3891
     11 C8         21.4371    8.7865    1.9683 C.2         1 MOL       0.1123
     12 O2         19.9749    8.3030   -0.9627 O.3         1 MOL      -0.3836
     13 N3         22.5757   12.0920    1.9823 N.ar        1 MOL      -0.2714
     14 C9         19.0201    6.7959    5.9873 C.3         1 MOL      -0.0527
     15 C10        18.7805    7.4238    3.5613 C.3         1 MOL      -0.0527
     16 C11        19.8666    9.0367    5.2224 C.3         1 MOL      -0.0527
     17 N4         17.2316    9.3784    6.5799 N.4         1 MOL       0.2383
     18 S1         16.6483   11.5967    2.7008 S.o2        1 MOL       0.1859
     19 O1A        16.1988   13.0347    3.4632 O.2         1 MOL      -0.1218
     20 O2A        15.3296   11.0157    1.8166 O.2         1 MOL      -0.1218
     21 O5         17.9457   11.9796    1.6818 O.3         1 MOL      -0.2161
     22 C25        17.8499   12.3837    0.3104 C.3         1 MOL       0.1073
     23 C24        19.0141   11.8229   -0.5608 C.3         1 MOL       0.1161
     24 C23        18.7702   10.4358   -1.2077 C.3         1 MOL       0.1146
     25 O3         19.3021   10.3864   -2.5357 O.3         1 MOL      -0.3864
     26 C22        19.5519    9.4929   -0.2917 C.3         1 MOL       0.1385
     27 C21        20.7308   10.3841    0.1694 C.3         1 MOL       0.2010
     28 O4         20.1951   11.7167    0.2533 O.3         1 MOL      -0.3367
     29 N9         21.3897   10.0075    1.3933 N.pl3       1 MOL      -0.1919
     30 N7         22.2200    8.7819    3.0580 N.2         1 MOL      -0.2958
     31 N6         24.0020    9.9554    5.1945 N.pl3       1 MOL      -0.3152
     32 H1         23.7118   13.6261    2.7741 H           1 MOL       0.0996
     33 H2         16.6084    7.7518    5.5065 H           1 MOL       0.1104
     34 H3         17.9681   10.8915    4.4295 H           1 MOL       0.2167
     35 H4         20.9456    7.9570    1.6302 H           1 MOL       0.1349
     36 H5         19.7172    7.5618   -0.3754 H           1 MOL       0.2101
     37 H6         19.9900    6.3452    5.7614 H           1 MOL       0.0238
     38 H7         18.2665    6.0146    5.8859 H           1 MOL       0.0238
     39 H8         19.0361    7.1281    7.0268 H           1 MOL       0.0238
     40 H9         18.6971    8.2283    2.8283 H           1 MOL       0.0238
     41 H10        17.9644    6.7202    3.3823 H           1 MOL       0.0238
     42 H11        19.7223    6.9025    3.3848 H           1 MOL       0.0238
     43 H12        19.8431    9.4662    6.2259 H           1 MOL       0.0238
     44 H13        19.8017    9.8496    4.4974 H           1 MOL       0.0238
     45 H14        20.8382    8.5557    5.1124 H           1 MOL       0.0238
     46 H15        16.2577    9.5723    6.8193 H           1 MOL       0.2015
     47 H16        17.7265   10.2622    6.4524 H           1 MOL       0.2015
     48 H17        17.6715    8.8569    7.3391 H           1 MOL       0.2015
     49 H18        17.9028   13.4751    0.3026 H           1 MOL       0.0611
     50 H19        16.8823   12.1071   -0.1144 H           1 MOL       0.0611
     51 H20        19.2215   12.5464   -1.3548 H           1 MOL       0.0648
     52 H21        17.7143   10.1542   -1.2462 H           1 MOL       0.0648
     53 H22        18.7428   10.9715   -3.0882 H           1 MOL       0.2100
     54 H23        18.9149    9.2315    0.5567 H           1 MOL       0.0676
     55 H24        21.4951   10.3871   -0.6133 H           1 MOL       0.0996
     56 H25        24.5933   10.3944    5.8292 H           1 MOL       0.1820
     57 H26        23.7513    9.0282    5.3390 H           1 MOL       0.1820
@<TRIPOS>BOND
     1     1     3   1
     2     9     1  am
     3     1    10   2
     4     2     8  ar
     5    13     2  ar
     6     3     7   1
     7     3    17   1
     8     4     5  ar
     9     4    13  ar
    10    29     4   1
    11     5     6  ar
    12    30     5   1
    13     6     8  ar
    14     6    31   1
    15     7    14   1
    16     7    15   1
    17     7    16   1
    18    18     9  am
    19    29    11   1
    20    11    30   2
    21    26    12   1
    22    18    19   2
    23    18    20   2
    24    21    18   1
    25    22    21   1
    26    23    22   1
    27    23    24   1
    28    28    23   1
    29    24    25   1
    30    26    24   1
    31    27    26   1
    32    27    28   1
    33    27    29   1
    34     2    32   1
    35     3    33   1
    36     9    34   1
    37    11    35   1
    38    12    36   1
    39    14    37   1
    40    14    38   1
    41    14    39   1
    42    15    40   1
    43    15    41   1
    44    15    42   1
    45    16    43   1
    46    16    44   1
    47    16    45   1
    48    17    46   1
    49    17    47   1
    50    17    48   1
    51    22    49   1
    52    22    50   1
    53    23    51   1
    54    24    52   1
    55    25    53   1
    56    26    54   1
    57    27    55   1
    58    31    56   1
    59    31    57   1
@<TRIPOS>SUBSTRUCTURE
     1  MOL      1

