@<TRIPOS>MOLECULE
3coy_ligand_080
    57    59
SMALL
GAST_HUCK
****
This file was generated by PARSER (from files_GN.cpp)

@<TRIPOS>ATOM
      1 C1         21.0682    8.6145    2.7220 C.2         1 MOL       0.2465
      2 C2         14.7712   10.7295    4.2071 C.ar        1 MOL       0.0533
      3 C3         20.6996    7.6029    3.7131 C.3         1 MOL       0.0714
      4 C4         14.5105    9.6983    2.1097 C.ar        1 MOL       0.1613
      5 C5         13.3330    9.0863    2.5304 C.ar        1 MOL       0.1045
      6 C6         12.8702    9.3463    3.8307 C.ar        1 MOL       0.1298
      7 C7         19.3263    7.8168    4.4721 C.3         1 MOL       0.0226
      8 N1         13.6104   10.1572    4.6349 N.ar        1 MOL      -0.2698
      9 N2         20.4784    8.6826    1.5350 N.am        1 MOL      -0.1294
     10 O1         21.9825    9.3831    3.0035 O.2         1 MOL      -0.3891
     11 C8         13.7097    8.5055    0.4948 C.2         1 MOL       0.1123
     12 O2         14.5285   11.2390   -1.6317 O.3         1 MOL      -0.3836
     13 N3         15.2161   10.5083    2.9409 N.ar        1 MOL      -0.2714
     14 C9         19.1396    9.3087    4.9044 C.3         1 MOL      -0.0527
     15 C10        18.0923    7.4014    3.6071 C.3         1 MOL      -0.0527
     16 C11        19.3180    6.9540    5.7813 C.3         1 MOL      -0.0527
     17 N4         20.8083    6.2684    3.0891 N.4         1 MOL       0.2383
     18 S1         20.9694    9.7087    0.2814 S.o2        1 MOL       0.1859
     19 O1A        20.5037    9.0052   -1.1809 O.2         1 MOL      -0.1218
     20 O2A        22.6374    9.9725    0.2846 O.2         1 MOL      -0.1218
     21 O5         20.2219   11.2272    0.3971 O.3         1 MOL      -0.2161
     22 C25        18.8695   11.4715    0.7853 C.3         1 MOL       0.1073
     23 C24        17.8311   10.7762   -0.1497 C.3         1 MOL       0.1161
     24 C23        16.8791   11.7166   -0.9485 C.3         1 MOL       0.1146
     25 O3         17.0950   11.6114   -2.3578 O.3         1 MOL      -0.3864
     26 C22        15.4733   11.2279   -0.5593 C.3         1 MOL       0.1385
     27 C21        15.7496    9.8043   -0.0446 C.3         1 MOL       0.2010
     28 O4         17.0004    9.9102    0.6381 O.3         1 MOL      -0.3367
     29 N9         14.7178    9.3356    0.8310 N.pl3       1 MOL      -0.1919
     30 N7         12.8496    8.3509    1.5181 N.2         1 MOL      -0.2958
     31 N6         11.7058    8.8444    4.2711 N.pl3       1 MOL      -0.3152
     32 H1         15.3006   11.3366    4.8333 H           1 MOL       0.0996
     33 H2         21.4830    7.6046    4.4824 H           1 MOL       0.1104
     34 H3         19.7810    8.0371    1.3326 H           1 MOL       0.2167
     35 H4         13.5843    8.0741   -0.4244 H           1 MOL       0.1349
     36 H5         14.3934   12.1875   -1.8456 H           1 MOL       0.2101
     37 H6         18.2400    9.4351    5.5164 H           1 MOL       0.0238
     38 H7         19.0380    9.9590    4.0329 H           1 MOL       0.0238
     39 H8         19.9978    9.6530    5.4889 H           1 MOL       0.0238
     40 H9         18.1401    6.3440    3.3438 H           1 MOL       0.0238
     41 H10        18.0455    7.9862    2.6885 H           1 MOL       0.0238
     42 H11        17.1620    7.5650    4.1561 H           1 MOL       0.0238
     43 H12        20.1481    7.2387    6.4348 H           1 MOL       0.0238
     44 H13        19.4151    5.8902    5.5538 H           1 MOL       0.0238
     45 H14        18.3898    7.0926    6.3445 H           1 MOL       0.0238
     46 H15        21.7561    6.1312    2.7318 H           1 MOL       0.2015
     47 H16        20.1470    6.1881    2.3144 H           1 MOL       0.2015
     48 H17        20.6078    5.5429    3.7794 H           1 MOL       0.2015
     49 H18        18.7387   12.5536    0.7840 H           1 MOL       0.0611
     50 H19        18.7511   11.1401    1.8189 H           1 MOL       0.0611
     51 H20        18.3608   10.1312   -0.8587 H           1 MOL       0.0648
     52 H21        16.9959   12.7688   -0.6762 H           1 MOL       0.0648
     53 H22        17.0551   10.6522   -2.5615 H           1 MOL       0.2100
     54 H23        15.0870   11.8495    0.2542 H           1 MOL       0.0676
     55 H24        15.8660    9.1207   -0.8943 H           1 MOL       0.0996
     56 H25        11.3916    9.0555    5.1653 H           1 MOL       0.1820
     57 H26        11.1565    8.3029    3.6821 H           1 MOL       0.1820
@<TRIPOS>BOND
     1     1     3   1
     2     9     1  am
     3     1    10   2
     4     2     8  ar
     5    13     2  ar
     6     3     7   1
     7     3    17   1
     8     4     5  ar
     9     4    13  ar
    10    29     4   1
    11     5     6  ar
    12    30     5   1
    13     6     8  ar
    14     6    31   1
    15     7    14   1
    16     7    15   1
    17     7    16   1
    18    18     9  am
    19    29    11   1
    20    11    30   2
    21    26    12   1
    22    18    19   2
    23    18    20   2
    24    21    18   1
    25    22    21   1
    26    23    22   1
    27    23    24   1
    28    28    23   1
    29    24    25   1
    30    26    24   1
    31    27    26   1
    32    27    28   1
    33    27    29   1
    34     2    32   1
    35     3    33   1
    36     9    34   1
    37    11    35   1
    38    12    36   1
    39    14    37   1
    40    14    38   1
    41    14    39   1
    42    15    40   1
    43    15    41   1
    44    15    42   1
    45    16    43   1
    46    16    44   1
    47    16    45   1
    48    17    46   1
    49    17    47   1
    50    17    48   1
    51    22    49   1
    52    22    50   1
    53    23    51   1
    54    24    52   1
    55    25    53   1
    56    26    54   1
    57    27    55   1
    58    31    56   1
    59    31    57   1
@<TRIPOS>SUBSTRUCTURE
     1  MOL      1

