@<TRIPOS>MOLECULE
3coy_ligand_089
    57    59
SMALL
GAST_HUCK
****
This file was generated by PARSER (from files_GN.cpp)

@<TRIPOS>ATOM
      1 C1         16.6162    9.3381    6.3922 C.2         1 MOL       0.2465
      2 C2         21.3188    7.6166    0.2135 C.ar        1 MOL       0.0533
      3 C3         15.9314    8.9452    7.6105 C.3         1 MOL       0.0714
      4 C4         21.6267    9.4483    1.6534 C.ar        1 MOL       0.1613
      5 C5         21.0050   10.3000    0.7511 C.ar        1 MOL       0.1045
      6 C6         20.5296    9.7615   -0.4559 C.ar        1 MOL       0.1298
      7 C7         14.3580    9.0451    7.5337 C.3         1 MOL       0.0226
      8 N1         20.7015    8.4338   -0.6856 N.ar        1 MOL      -0.2698
      9 N2         16.8004    8.4657    5.4090 N.am        1 MOL      -0.1294
     10 O1         16.9805   10.5040    6.2622 O.2         1 MOL      -0.3891
     11 C8         21.6335   11.4637    2.4436 C.2         1 MOL       0.1123
     12 O2         23.9594   10.1549    5.9327 O.3         1 MOL      -0.3836
     13 N3         21.7839    8.1259    1.3786 N.ar        1 MOL      -0.2714
     14 C9         13.7194    8.7057    8.9238 C.3         1 MOL      -0.0527
     15 C10        13.9312   10.5118    7.1837 C.3         1 MOL      -0.0527
     16 C11        13.7520    8.0704    6.4752 C.3         1 MOL      -0.0527
     17 N4         16.4355    7.6104    8.0038 N.4         1 MOL       0.2383
     18 S1         17.6118    8.7761    3.9599 S.o2        1 MOL       0.1859
     19 O1A        17.1263   10.2507    3.2849 O.2         1 MOL      -0.1218
     20 O2A        17.3346    7.4737    2.9214 O.2         1 MOL      -0.1218
     21 O5         19.2751    8.8908    4.2673 O.3         1 MOL      -0.2161
     22 C25        20.0546    7.8595    4.9153 C.3         1 MOL       0.1073
     23 C24        21.4834    8.3585    5.2732 C.3         1 MOL       0.1161
     24 C23        21.5300    9.7879    5.8711 C.3         1 MOL       0.1146
     25 O3         21.6160    9.7833    7.2999 O.3         1 MOL      -0.3864
     26 C22        22.7638   10.4052    5.1819 C.3         1 MOL       0.1385
     27 C21        22.7901    9.6675    3.8190 C.3         1 MOL       0.2010
     28 O4         22.3589    8.3353    4.1324 O.3         1 MOL      -0.3367
     29 N9         22.0188   10.1902    2.7083 N.pl3       1 MOL      -0.1919
     30 N7         21.0063   11.5435    1.2498 N.2         1 MOL      -0.2958
     31 N6         19.9104   10.5260   -1.3667 N.pl3       1 MOL      -0.3152
     32 H1         21.4389    6.6242    0.0157 H           1 MOL       0.0996
     33 H2         16.2670    9.6028    8.4121 H           1 MOL       0.1104
     34 H3         16.4732    7.5574    5.5459 H           1 MOL       0.2167
     35 H4         21.8016   12.2863    3.0366 H           1 MOL       0.1349
     36 H5         24.0153    9.1762    5.9990 H           1 MOL       0.2101
     37 H6         12.6368    8.8800    8.9116 H           1 MOL       0.0238
     38 H7         14.1439    9.3239    9.7172 H           1 MOL       0.0238
     39 H8         13.8755    7.6584    9.1885 H           1 MOL       0.0238
     40 H9         14.2638   10.7926    6.1806 H           1 MOL       0.0238
     41 H10        14.3675   11.2250    7.8904 H           1 MOL       0.0238
     42 H11        12.8478   10.6331    7.2084 H           1 MOL       0.0238
     43 H12        14.0407    7.0391    6.6876 H           1 MOL       0.0238
     44 H13        14.0881    8.3203    5.4725 H           1 MOL       0.0238
     45 H14        12.6635    8.1257    6.4808 H           1 MOL       0.0238
     46 H15        17.4442    7.6705    8.1649 H           1 MOL       0.2015
     47 H16        16.2627    6.9124    7.2698 H           1 MOL       0.2015
     48 H17        15.9882    7.2860    8.8710 H           1 MOL       0.2015
     49 H18        20.1206    6.9993    4.2368 H           1 MOL       0.0611
     50 H19        19.5687    7.5208    5.8511 H           1 MOL       0.0611
     51 H20        21.9248    7.6579    5.9868 H           1 MOL       0.0648
     52 H21        20.6622   10.3902    5.5878 H           1 MOL       0.0648
     53 H22        21.3964   10.7012    7.5539 H           1 MOL       0.2100
     54 H23        22.6531   11.4925    5.0738 H           1 MOL       0.0676
     55 H24        23.8247    9.5977    3.4737 H           1 MOL       0.0996
     56 H25        19.5941   10.1289   -2.1946 H           1 MOL       0.1820
     57 H26        19.7713   11.4694   -1.1948 H           1 MOL       0.1820
@<TRIPOS>BOND
     1     1     3   1
     2     9     1  am
     3     1    10   2
     4     2     8  ar
     5    13     2  ar
     6     3     7   1
     7     3    17   1
     8     4     5  ar
     9     4    13  ar
    10    29     4   1
    11     5     6  ar
    12    30     5   1
    13     6     8  ar
    14     6    31   1
    15     7    14   1
    16     7    15   1
    17     7    16   1
    18    18     9  am
    19    29    11   1
    20    11    30   2
    21    26    12   1
    22    18    19   2
    23    18    20   2
    24    21    18   1
    25    22    21   1
    26    23    22   1
    27    23    24   1
    28    28    23   1
    29    24    25   1
    30    26    24   1
    31    27    26   1
    32    27    28   1
    33    27    29   1
    34     2    32   1
    35     3    33   1
    36     9    34   1
    37    11    35   1
    38    12    36   1
    39    14    37   1
    40    14    38   1
    41    14    39   1
    42    15    40   1
    43    15    41   1
    44    15    42   1
    45    16    43   1
    46    16    44   1
    47    16    45   1
    48    17    46   1
    49    17    47   1
    50    17    48   1
    51    22    49   1
    52    22    50   1
    53    23    51   1
    54    24    52   1
    55    25    53   1
    56    26    54   1
    57    27    55   1
    58    31    56   1
    59    31    57   1
@<TRIPOS>SUBSTRUCTURE
     1  MOL      1

