@<TRIPOS>MOLECULE
3coy_ligand_067
    57    59
SMALL
GAST_HUCK
****
This file was generated by PARSER (from files_GN.cpp)

@<TRIPOS>ATOM
      1 C1         15.1349   10.3843    0.4635 C.2         1 MOL       0.2465
      2 C2         24.2692    9.7606    5.7290 C.ar        1 MOL       0.0533
      3 C3         14.6822    9.5036    1.5423 C.3         1 MOL       0.0714
      4 C4         22.2266    9.6398    4.5670 C.ar        1 MOL       0.1613
      5 C5         21.5377    9.4537    5.7625 C.ar        1 MOL       0.1045
      6 C6         22.2600    9.4260    6.9689 C.ar        1 MOL       0.1298
      7 C7         13.5691   10.0264    2.5400 C.3         1 MOL       0.0226
      8 N1         23.6105    9.5813    6.9100 N.ar        1 MOL      -0.2698
      9 N2         16.2285   10.0597   -0.2156 N.am        1 MOL      -0.1294
     10 O1         14.5040   11.3908    0.1628 O.2         1 MOL      -0.3891
     11 C8         20.1146    9.4465    4.1537 C.2         1 MOL       0.1123
     12 O2         22.2264    8.0496    0.5469 O.3         1 MOL      -0.3836
     13 N3         23.5762    9.7893    4.5589 N.ar        1 MOL      -0.2714
     14 C9         13.5016    9.0937    3.8015 C.3         1 MOL      -0.0527
     15 C10        13.9273   11.4596    3.0608 C.3         1 MOL      -0.0527
     16 C11        12.1382   10.0440    1.8997 C.3         1 MOL      -0.0527
     17 N4         14.3024    8.2274    0.9001 N.4         1 MOL       0.2383
     18 S1         16.9202   10.9171   -1.4963 S.o2        1 MOL       0.1859
     19 O1A        16.1928   12.4287   -1.7289 O.2         1 MOL      -0.1218
     20 O2A        16.7803   10.0320   -2.9292 O.2         1 MOL      -0.1218
     21 O5         18.5753   11.1528   -1.2165 O.3         1 MOL      -0.2161
     22 C25        19.1607   11.5227    0.0358 C.3         1 MOL       0.1073
     23 C24        20.3459   10.5890    0.3750 C.3         1 MOL       0.1161
     24 C23        19.9982    9.0902    0.4634 C.3         1 MOL       0.1146
     25 O3         19.9316    8.4315   -0.8023 O.3         1 MOL      -0.3864
     26 C22        21.1414    8.5483    1.3372 C.3         1 MOL       0.1385
     27 C21        21.5759    9.7857    2.1701 C.3         1 MOL       0.2010
     28 O4         20.8453   10.9178    1.6763 O.3         1 MOL      -0.3367
     29 N9         21.3216    9.6327    3.5734 N.pl3       1 MOL      -0.1919
     30 N7         20.2337    9.3316    5.4891 N.2         1 MOL      -0.2958
     31 N6         21.6509    9.2533    8.1521 N.pl3       1 MOL      -0.3152
     32 H1         25.2836    9.8749    5.7250 H           1 MOL       0.0996
     33 H2         15.5660    9.2848    2.1479 H           1 MOL       0.1104
     34 H3         16.6794    9.2355    0.0373 H           1 MOL       0.2167
     35 H4         19.2227    9.3961    3.6590 H           1 MOL       0.1349
     36 H5         22.3052    8.6711   -0.2046 H           1 MOL       0.2101
     37 H6         12.7579    9.4533    4.5240 H           1 MOL       0.0238
     38 H7         14.4695    9.0606    4.3114 H           1 MOL       0.0238
     39 H8         13.2211    8.0709    3.5316 H           1 MOL       0.0238
     40 H9         13.8846   12.1982    2.2588 H           1 MOL       0.0238
     41 H10        14.9370   11.4759    3.4861 H           1 MOL       0.0238
     42 H11        13.2269   11.7862    3.8375 H           1 MOL       0.0238
     43 H12        11.8712    9.0558    1.5222 H           1 MOL       0.0238
     44 H13        12.0806   10.7528    1.0678 H           1 MOL       0.0238
     45 H14        11.3831   10.3430    2.6345 H           1 MOL       0.0238
     46 H15        15.1280    7.8074    0.4646 H           1 MOL       0.2015
     47 H16        13.6000    8.3985    0.1775 H           1 MOL       0.2015
     48 H17        13.9335    7.5682    1.5876 H           1 MOL       0.2015
     49 H18        18.4286   11.5055    0.8485 H           1 MOL       0.0611
     50 H19        19.5262   12.5465   -0.0560 H           1 MOL       0.0611
     51 H20        21.1424   10.7477   -0.3636 H           1 MOL       0.0648
     52 H21        19.0437    8.9583    0.9853 H           1 MOL       0.0648
     53 H22        19.5406    7.5525   -0.5767 H           1 MOL       0.2100
     54 H23        20.7817    7.7244    1.9633 H           1 MOL       0.0676
     55 H24        22.6354    9.9900    1.9981 H           1 MOL       0.0996
     56 H25        22.1746    9.2434    8.9674 H           1 MOL       0.1820
     57 H26        20.6892    9.1361    8.1935 H           1 MOL       0.1820
@<TRIPOS>BOND
     1     1     3   1
     2     9     1  am
     3     1    10   2
     4     2     8  ar
     5    13     2  ar
     6     3     7   1
     7     3    17   1
     8     4     5  ar
     9     4    13  ar
    10    29     4   1
    11     5     6  ar
    12    30     5   1
    13     6     8  ar
    14     6    31   1
    15     7    14   1
    16     7    15   1
    17     7    16   1
    18    18     9  am
    19    29    11   1
    20    11    30   2
    21    26    12   1
    22    18    19   2
    23    18    20   2
    24    21    18   1
    25    22    21   1
    26    23    22   1
    27    23    24   1
    28    28    23   1
    29    24    25   1
    30    26    24   1
    31    27    26   1
    32    27    28   1
    33    27    29   1
    34     2    32   1
    35     3    33   1
    36     9    34   1
    37    11    35   1
    38    12    36   1
    39    14    37   1
    40    14    38   1
    41    14    39   1
    42    15    40   1
    43    15    41   1
    44    15    42   1
    45    16    43   1
    46    16    44   1
    47    16    45   1
    48    17    46   1
    49    17    47   1
    50    17    48   1
    51    22    49   1
    52    22    50   1
    53    23    51   1
    54    24    52   1
    55    25    53   1
    56    26    54   1
    57    27    55   1
    58    31    56   1
    59    31    57   1
@<TRIPOS>SUBSTRUCTURE
     1  MOL      1

