@<TRIPOS>MOLECULE
3coy_ligand_020
    57    59
SMALL
GAST_HUCK
****
This file was generated by PARSER (from files_GN.cpp)

@<TRIPOS>ATOM
      1 C1         16.0082    9.5223    2.6056 C.2         1 MOL       0.2465
      2 C2         24.1159   15.4777    1.2036 C.ar        1 MOL       0.0533
      3 C3         14.7683    9.1260    1.9439 C.3         1 MOL       0.0714
      4 C4         23.3754   13.3364    1.8524 C.ar        1 MOL       0.1613
      5 C5         24.0501   13.4541    3.0606 C.ar        1 MOL       0.1045
      6 C6         24.7581   14.6383    3.3345 C.ar        1 MOL       0.1298
      7 C7         13.4466    9.7470    2.5650 C.3         1 MOL       0.0226
      8 N1         24.7736   15.6124    2.3872 N.ar        1 MOL      -0.2698
      9 N2         16.4865   10.7393    2.4251 N.am        1 MOL      -0.1294
     10 O1         16.5691    8.7156    3.3380 O.2         1 MOL      -0.3891
     11 C8         23.0954   11.5385    3.0123 C.2         1 MOL       0.1123
     12 O2         22.0504    9.1661    0.8600 O.3         1 MOL      -0.3836
     13 N3         23.4114   14.3384    0.9399 N.ar        1 MOL      -0.2714
     14 C9         13.3194   11.2891    2.3176 C.3         1 MOL      -0.0527
     15 C10        12.1968    9.0467    1.9307 C.3         1 MOL      -0.0527
     16 C11        13.4044    9.4814    4.1108 C.3         1 MOL      -0.0527
     17 N4         14.9204    9.3688    0.4948 N.4         1 MOL       0.2383
     18 S1         17.8902   11.3989    3.0933 S.o2        1 MOL       0.1859
     19 O1A        18.9741   10.2378    3.6796 O.2         1 MOL      -0.1218
     20 O2A        17.4790   12.3926    4.4041 O.2         1 MOL      -0.1218
     21 O5         18.6737   12.4055    1.9704 O.3         1 MOL      -0.2161
     22 C25        18.5292   12.3968    0.5398 C.3         1 MOL       0.1073
     23 C24        19.8169   11.8897   -0.1654 C.3         1 MOL       0.1161
     24 C23        20.0831   10.3667   -0.0413 C.3         1 MOL       0.1146
     25 O3         20.5483    9.7900   -1.2695 O.3         1 MOL      -0.3864
     26 C22        21.1986   10.3000    1.0003 C.3         1 MOL       0.1385
     27 C21        21.9631   11.6238    0.7604 C.3         1 MOL       0.2010
     28 O4         20.9523   12.5776    0.3956 O.3         1 MOL      -0.3367
     29 N9         22.7635   12.1365    1.8435 N.pl3       1 MOL      -0.1919
     30 N7         23.8672   12.3380    3.7652 N.2         1 MOL      -0.2958
     31 N6         25.3992   14.8178    4.4959 N.pl3       1 MOL      -0.3152
     32 H1         24.1483   16.2371    0.5185 H           1 MOL       0.0996
     33 H2         14.6716    8.0350    2.0237 H           1 MOL       0.1104
     34 H3         16.0032   11.3203    1.8244 H           1 MOL       0.2167
     35 H4         22.8165   10.6031    3.3108 H           1 MOL       0.1349
     36 H5         21.4447    8.3953    0.8321 H           1 MOL       0.2101
     37 H6         12.3617   11.6615    2.6817 H           1 MOL       0.0238
     38 H7         13.3862   11.5200    1.2536 H           1 MOL       0.0238
     39 H8         14.1003   11.8416    2.8395 H           1 MOL       0.0238
     40 H9         12.2401    7.9673    2.0883 H           1 MOL       0.0238
     41 H10        12.1506    9.2396    0.8593 H           1 MOL       0.0238
     42 H11        11.2719    9.4121    2.3772 H           1 MOL       0.0238
     43 H12        14.1969   10.0324    4.6219 H           1 MOL       0.0238
     44 H13        13.5391    8.4190    4.3238 H           1 MOL       0.0238
     45 H14        12.4534    9.7937    4.5392 H           1 MOL       0.0238
     46 H15        15.7360    8.8556    0.1593 H           1 MOL       0.2015
     47 H16        15.0479   10.3639    0.3200 H           1 MOL       0.2015
     48 H17        14.0974    9.0434   -0.0121 H           1 MOL       0.2015
     49 H18        18.3427   13.4301    0.2311 H           1 MOL       0.0611
     50 H19        17.6740   11.7986    0.2207 H           1 MOL       0.0611
     51 H20        19.7367   12.1537   -1.2277 H           1 MOL       0.0648
     52 H21        19.2064    9.8101    0.2851 H           1 MOL       0.0648
     53 H22        20.0624   10.2504   -1.9930 H           1 MOL       0.2100
     54 H23        20.7552   10.2866    1.9992 H           1 MOL       0.0676
     55 H24        22.6240   11.4903   -0.1003 H           1 MOL       0.0996
     56 H25        25.8760   15.6479    4.6687 H           1 MOL       0.1820
     57 H26        25.3731   14.1288    5.1783 H           1 MOL       0.1820
@<TRIPOS>BOND
     1     1     3   1
     2     9     1  am
     3     1    10   2
     4     2     8  ar
     5    13     2  ar
     6     3     7   1
     7     3    17   1
     8     4     5  ar
     9     4    13  ar
    10    29     4   1
    11     5     6  ar
    12    30     5   1
    13     6     8  ar
    14     6    31   1
    15     7    14   1
    16     7    15   1
    17     7    16   1
    18    18     9  am
    19    29    11   1
    20    11    30   2
    21    26    12   1
    22    18    19   2
    23    18    20   2
    24    21    18   1
    25    22    21   1
    26    23    22   1
    27    23    24   1
    28    28    23   1
    29    24    25   1
    30    26    24   1
    31    27    26   1
    32    27    28   1
    33    27    29   1
    34     2    32   1
    35     3    33   1
    36     9    34   1
    37    11    35   1
    38    12    36   1
    39    14    37   1
    40    14    38   1
    41    14    39   1
    42    15    40   1
    43    15    41   1
    44    15    42   1
    45    16    43   1
    46    16    44   1
    47    16    45   1
    48    17    46   1
    49    17    47   1
    50    17    48   1
    51    22    49   1
    52    22    50   1
    53    23    51   1
    54    24    52   1
    55    25    53   1
    56    26    54   1
    57    27    55   1
    58    31    56   1
    59    31    57   1
@<TRIPOS>SUBSTRUCTURE
     1  MOL      1

