@<TRIPOS>MOLECULE
3coy_ligand_009
    57    59
SMALL
GAST_HUCK
****
This file was generated by PARSER (from files_GN.cpp)

@<TRIPOS>ATOM
      1 C1         15.2372   10.7420    7.9145 C.2         1 MOL       0.2465
      2 C2         13.6688    8.4101   -4.6552 C.ar        1 MOL       0.0533
      3 C3         15.0307   11.6773    9.0222 C.3         1 MOL       0.0714
      4 C4         14.0568    9.9176   -2.8932 C.ar        1 MOL       0.1613
      5 C5         14.6979   10.7978   -3.7568 C.ar        1 MOL       0.1045
      6 C6         14.8164   10.4484   -5.1168 C.ar        1 MOL       0.1298
      7 C7         13.6202   11.5784    9.7462 C.3         1 MOL       0.0226
      8 N1         14.2906    9.2594   -5.5183 N.ar        1 MOL      -0.2698
      9 N2         15.0404   11.1711    6.6725 N.am        1 MOL      -0.1294
     10 O1         15.4610    9.5629    8.1418 O.2         1 MOL      -0.3891
     11 C8         14.7104   11.6549   -1.7903 C.2         1 MOL       0.1123
     12 O2         14.4273    7.5808   -0.6095 O.3         1 MOL      -0.3836
     13 N3         13.5515    8.7388   -3.3391 N.ar        1 MOL      -0.2714
     14 C9         13.5186   10.3255   10.6668 C.3         1 MOL      -0.0527
     15 C10        13.3913   12.8492   10.6363 C.3         1 MOL      -0.0527
     16 C11        12.4472   11.5284    8.7064 C.3         1 MOL      -0.0527
     17 N4         16.1650   11.5582    9.9652 N.4         1 MOL       0.2383
     18 S1         15.0346   10.2453    5.2648 S.o2        1 MOL       0.1859
     19 O1A        14.0070    8.9251    5.4823 O.2         1 MOL      -0.1218
     20 O2A        16.5624    9.5902    4.9455 O.2         1 MOL      -0.1218
     21 O5         14.4705   11.2004    3.9845 O.3         1 MOL      -0.2161
     22 C25        14.7599   11.0511    2.5932 C.3         1 MOL       0.1073
     23 C24        13.6645   10.2176    1.8632 C.3         1 MOL       0.1161
     24 C23        14.0620    8.7420    1.5725 C.3         1 MOL       0.1146
     25 O3         12.9481    7.8594    1.7338 O.3         1 MOL      -0.3864
     26 C22        14.5019    8.8149    0.1048 C.3         1 MOL       0.1385
     27 C21        13.5522    9.8802   -0.4655 C.3         1 MOL       0.2010
     28 O4         13.3732   10.8343    0.5937 O.3         1 MOL      -0.3367
     29 N9         14.0713   10.4707   -1.6663 N.pl3       1 MOL      -0.1919
     30 N7         15.0974   11.8677   -3.0629 N.2         1 MOL      -0.2958
     31 N6         15.4261   11.2539   -6.0005 N.pl3       1 MOL      -0.3152
     32 H1         13.2867    7.5249   -4.9937 H           1 MOL       0.0996
     33 H2         15.1102   12.6916    8.6169 H           1 MOL       0.1104
     34 H3         14.8152   12.1059    6.5612 H           1 MOL       0.2167
     35 H4         14.9077   12.3021   -1.0284 H           1 MOL       0.1349
     36 H5         15.1853    7.0607   -0.2725 H           1 MOL       0.2101
     37 H6         12.5277   10.2467   11.1239 H           1 MOL       0.0238
     38 H7         14.2481   10.3812   11.4788 H           1 MOL       0.0238
     39 H8         13.6990    9.4063   10.1046 H           1 MOL       0.0238
     40 H9         13.4119   13.7562   10.0315 H           1 MOL       0.0238
     41 H10        14.1633   12.9328   11.4029 H           1 MOL       0.0238
     42 H11        12.4213   12.8083   11.1396 H           1 MOL       0.0238
     43 H12        12.4917   10.6157    8.1095 H           1 MOL       0.0238
     44 H13        12.4983   12.3829    8.0315 H           1 MOL       0.0238
     45 H14        11.4732   11.5390    9.2048 H           1 MOL       0.0238
     46 H15        17.0462   11.6412    9.4555 H           1 MOL       0.2015
     47 H16        16.1409   10.6511   10.4322 H           1 MOL       0.2015
     48 H17        16.1139   12.3001   10.6665 H           1 MOL       0.2015
     49 H18        15.7580   10.6285    2.4471 H           1 MOL       0.0611
     50 H19        14.7883   12.0657    2.1881 H           1 MOL       0.0611
     51 H20        12.7412   10.2538    2.4519 H           1 MOL       0.0648
     52 H21        14.8792    8.3927    2.2103 H           1 MOL       0.0648
     53 H22        12.7539    7.8558    2.6962 H           1 MOL       0.2100
     54 H23        15.5315    9.1850    0.0528 H           1 MOL       0.0676
     55 H24        12.5658    9.4442   -0.6705 H           1 MOL       0.0996
     56 H25        15.5000   10.9907   -6.9343 H           1 MOL       0.1820
     57 H26        15.7992   12.1012   -5.7094 H           1 MOL       0.1820
@<TRIPOS>BOND
     1     1     3   1
     2     9     1  am
     3     1    10   2
     4     2     8  ar
     5    13     2  ar
     6     3     7   1
     7     3    17   1
     8     4     5  ar
     9     4    13  ar
    10    29     4   1
    11     5     6  ar
    12    30     5   1
    13     6     8  ar
    14     6    31   1
    15     7    14   1
    16     7    15   1
    17     7    16   1
    18    18     9  am
    19    29    11   1
    20    11    30   2
    21    26    12   1
    22    18    19   2
    23    18    20   2
    24    21    18   1
    25    22    21   1
    26    23    22   1
    27    23    24   1
    28    28    23   1
    29    24    25   1
    30    26    24   1
    31    27    26   1
    32    27    28   1
    33    27    29   1
    34     2    32   1
    35     3    33   1
    36     9    34   1
    37    11    35   1
    38    12    36   1
    39    14    37   1
    40    14    38   1
    41    14    39   1
    42    15    40   1
    43    15    41   1
    44    15    42   1
    45    16    43   1
    46    16    44   1
    47    16    45   1
    48    17    46   1
    49    17    47   1
    50    17    48   1
    51    22    49   1
    52    22    50   1
    53    23    51   1
    54    24    52   1
    55    25    53   1
    56    26    54   1
    57    27    55   1
    58    31    56   1
    59    31    57   1
@<TRIPOS>SUBSTRUCTURE
     1  MOL      1

