@<TRIPOS>MOLECULE
3coy_ligand_064
    57    59
SMALL
GAST_HUCK
****
This file was generated by PARSER (from files_GN.cpp)

@<TRIPOS>ATOM
      1 C1         21.9292    6.6014    1.8493 C.2         1 MOL       0.2465
      2 C2         13.4063    8.4170    1.7490 C.ar        1 MOL       0.0533
      3 C3         21.8924    5.4408    2.7430 C.3         1 MOL       0.0714
      4 C4         14.0929    9.4167    3.7675 C.ar        1 MOL       0.1613
      5 C5         12.8099    9.2871    4.2912 C.ar        1 MOL       0.1045
      6 C6         11.8077    8.7224    3.4850 C.ar        1 MOL       0.1298
      7 C7         22.6773    5.6025    4.1083 C.3         1 MOL       0.0226
      8 N1         12.1416    8.2984    2.2319 N.ar        1 MOL      -0.2698
      9 N2         21.1149    7.6341    2.0219 N.am        1 MOL      -0.1294
     10 O1         22.7023    6.5799    0.8990 O.2         1 MOL      -0.3891
     11 C8         14.0586   10.2081    5.7796 C.2         1 MOL       0.1123
     12 O2         17.7055    9.9139    6.5132 O.3         1 MOL      -0.3836
     13 N3         14.3799    8.9801    2.5157 N.ar        1 MOL      -0.2714
     14 C9         22.0403    6.6792    5.0444 C.3         1 MOL      -0.0527
     15 C10        22.6842    4.2359    4.8757 C.3         1 MOL      -0.0527
     16 C11        24.1678    6.0003    3.8377 C.3         1 MOL      -0.0527
     17 N4         20.4880    5.0148    2.9204 N.4         1 MOL       0.2383
     18 S1         21.0167    8.9737    0.9924 S.o2        1 MOL       0.1859
     19 O1A        20.5412    8.4044   -0.5243 O.2         1 MOL      -0.1218
     20 O2A        22.5340    9.6921    0.8324 O.2         1 MOL      -0.1218
     21 O5         19.8965   10.0856    1.5996 O.3         1 MOL      -0.2161
     22 C25        18.5010    9.8571    1.7680 C.3         1 MOL       0.1073
     23 C24        18.0705   10.1879    3.2190 C.3         1 MOL       0.1161
     24 C23        18.2637    9.0552    4.2500 C.3         1 MOL       0.1146
     25 O3         19.5924    9.0376    4.7628 O.3         1 MOL      -0.3864
     26 C22        17.1830    9.3504    5.3110 C.3         1 MOL       0.1385
     27 C21        16.2419   10.3666    4.6150 C.3         1 MOL       0.2010
     28 O4         16.6677   10.4505    3.2480 O.3         1 MOL      -0.3367
     29 N9         14.8560   10.0065    4.7065 N.pl3       1 MOL      -0.1919
     30 N7         12.8064    9.7774    5.5381 N.2         1 MOL      -0.2958
     31 N6         10.5473    8.6143    3.9305 N.pl3       1 MOL      -0.3152
     32 H1         13.6285    8.0919    0.8093 H           1 MOL       0.0996
     33 H2         22.3568    4.6069    2.2094 H           1 MOL       0.1104
     34 H3         20.5105    7.6119    2.7792 H           1 MOL       0.2167
     35 H4         14.3504   10.6435    6.6570 H           1 MOL       0.1349
     36 H5         18.2170    9.2094    6.9631 H           1 MOL       0.2101
     37 H6         22.6159    6.7783    5.9679 H           1 MOL       0.0238
     38 H7         21.0186    6.4099    5.3155 H           1 MOL       0.0238
     39 H8         22.0248    7.6563    4.5621 H           1 MOL       0.0238
     40 H9         23.1771    3.4600    4.2848 H           1 MOL       0.0238
     41 H10        21.6686    3.9006    5.0951 H           1 MOL       0.0238
     42 H11        23.2155    4.3223    5.8281 H           1 MOL       0.0238
     43 H12        24.2348    7.0144    3.4413 H           1 MOL       0.0238
     44 H13        24.6294    5.3229    3.1159 H           1 MOL       0.0238
     45 H14        24.7581    5.9672    4.7568 H           1 MOL       0.0238
     46 H15        19.9863    5.0894    2.0318 H           1 MOL       0.2015
     47 H16        20.0217    5.6119    3.6056 H           1 MOL       0.2015
     48 H17        20.4585    4.0461    3.2404 H           1 MOL       0.2015
     49 H18        18.2276    8.8349    1.5068 H           1 MOL       0.0611
     50 H19        17.9820   10.5264    1.0799 H           1 MOL       0.0611
     51 H20        18.5937   11.0938    3.5486 H           1 MOL       0.0648
     52 H21        18.0540    8.0868    3.7850 H           1 MOL       0.0648
     53 H22        19.6092    8.2904    5.3974 H           1 MOL       0.2100
     54 H23        16.6549    8.4286    5.5707 H           1 MOL       0.0676
     55 H24        16.3739   11.3682    5.0407 H           1 MOL       0.0996
     56 H25         9.8651    8.2306    3.3618 H           1 MOL       0.1820
     57 H26        10.3158    8.9241    4.8201 H           1 MOL       0.1820
@<TRIPOS>BOND
     1     1     3   1
     2     9     1  am
     3     1    10   2
     4     2     8  ar
     5    13     2  ar
     6     3     7   1
     7     3    17   1
     8     4     5  ar
     9     4    13  ar
    10    29     4   1
    11     5     6  ar
    12    30     5   1
    13     6     8  ar
    14     6    31   1
    15     7    14   1
    16     7    15   1
    17     7    16   1
    18    18     9  am
    19    29    11   1
    20    11    30   2
    21    26    12   1
    22    18    19   2
    23    18    20   2
    24    21    18   1
    25    22    21   1
    26    23    22   1
    27    23    24   1
    28    28    23   1
    29    24    25   1
    30    26    24   1
    31    27    26   1
    32    27    28   1
    33    27    29   1
    34     2    32   1
    35     3    33   1
    36     9    34   1
    37    11    35   1
    38    12    36   1
    39    14    37   1
    40    14    38   1
    41    14    39   1
    42    15    40   1
    43    15    41   1
    44    15    42   1
    45    16    43   1
    46    16    44   1
    47    16    45   1
    48    17    46   1
    49    17    47   1
    50    17    48   1
    51    22    49   1
    52    22    50   1
    53    23    51   1
    54    24    52   1
    55    25    53   1
    56    26    54   1
    57    27    55   1
    58    31    56   1
    59    31    57   1
@<TRIPOS>SUBSTRUCTURE
     1  MOL      1

