@<TRIPOS>MOLECULE
3coy_ligand_004
    57    59
SMALL
GAST_HUCK
****
This file was generated by PARSER (from files_GN.cpp)

@<TRIPOS>ATOM
      1 C1         17.8202    8.8181    5.1584 C.2         1 MOL       0.2465
      2 C2         12.6945    9.9040   -4.5130 C.ar        1 MOL       0.0533
      3 C3         18.6708    7.6283    5.0684 C.3         1 MOL       0.0714
      4 C4         14.0186   10.6188   -2.7048 C.ar        1 MOL       0.1613
      5 C5         15.0282   11.0174   -3.5769 C.ar        1 MOL       0.1045
      6 C6         14.8508   10.8131   -4.9601 C.ar        1 MOL       0.1298
      7 C7         20.1607    7.7610    4.5305 C.3         1 MOL       0.0226
      8 N1         13.6800   10.2683   -5.3833 N.ar        1 MOL      -0.2698
      9 N2         16.5153    8.6792    5.3699 N.am        1 MOL      -0.1294
     10 O1         18.3074    9.9373    5.0364 O.2         1 MOL      -0.3891
     11 C8         15.6793   11.4043   -1.5660 C.2         1 MOL       0.1123
     12 O2         13.4046    8.0707    0.3348 O.3         1 MOL      -0.3836
     13 N3         12.8714   10.0655   -3.1731 N.ar        1 MOL      -0.2714
     14 C9         20.7083    6.3347    4.1712 C.3         1 MOL      -0.0527
     15 C10        20.2542    8.6072    3.2113 C.3         1 MOL      -0.0527
     16 C11        21.1095    8.4013    5.6001 C.3         1 MOL      -0.0527
     17 N4         18.6224    6.9898    6.4068 N.4         1 MOL       0.2383
     18 S1         15.3765    9.9286    5.2897 S.o2        1 MOL       0.1859
     19 O1A        15.5262   10.8164    6.7210 O.2         1 MOL      -0.1218
     20 O2A        13.7925    9.3506    5.1661 O.2         1 MOL      -0.1218
     21 O5         15.8086   10.9630    4.0160 O.3         1 MOL      -0.2161
     22 C25        14.9768   11.6220    3.0588 C.3         1 MOL       0.1073
     23 C24        14.2321   10.6919    2.0574 C.3         1 MOL       0.1161
     24 C23        15.0005    9.4202    1.6433 C.3         1 MOL       0.1146
     25 O3         14.8490    8.3586    2.5814 O.3         1 MOL      -0.3864
     26 C22        14.4147    9.0777    0.2638 C.3         1 MOL       0.1385
     27 C21        13.8216   10.4239   -0.2287 C.3         1 MOL       0.2010
     28 O4         14.0009   11.3934    0.8221 O.3         1 MOL      -0.3367
     29 N9         14.4498   10.8526   -1.4506 N.pl3       1 MOL      -0.1919
     30 N7         16.0447   11.5077   -2.8555 N.2         1 MOL      -0.2958
     31 N6         15.8134   11.1114   -5.8526 N.pl3       1 MOL      -0.3152
     32 H1         11.8310    9.4933   -4.8657 H           1 MOL       0.0996
     33 H2         18.1539    6.9487    4.3804 H           1 MOL       0.1104
     34 H3         16.1780    7.7753    5.5148 H           1 MOL       0.2167
     35 H4         16.2802   11.6717   -0.7821 H           1 MOL       0.1349
     36 H5         13.8766    7.2578    0.6125 H           1 MOL       0.2101
     37 H6         21.7254    6.3891    3.7708 H           1 MOL       0.0238
     38 H7         20.0768    5.8619    3.4140 H           1 MOL       0.0238
     39 H8         20.7344    5.6851    5.0472 H           1 MOL       0.0238
     40 H9         20.0733    9.6643    3.4103 H           1 MOL       0.0238
     41 H10        19.5277    8.2628    2.4680 H           1 MOL       0.0238
     42 H11        21.2553    8.5349    2.7719 H           1 MOL       0.0238
     43 H12        21.1359    7.7935    6.5053 H           1 MOL       0.0238
     44 H13        20.7797    9.4043    5.8740 H           1 MOL       0.0238
     45 H14        22.1325    8.4782    5.2185 H           1 MOL       0.0238
     46 H15        17.6943    6.5818    6.5495 H           1 MOL       0.2015
     47 H16        18.7951    7.6906    7.1364 H           1 MOL       0.2015
     48 H17        19.3230    6.2460    6.4900 H           1 MOL       0.2015
     49 H18        15.6474   12.2704    2.4943 H           1 MOL       0.0611
     50 H19        14.2620   12.2635    3.5792 H           1 MOL       0.0611
     51 H20        13.2582   10.4140    2.4837 H           1 MOL       0.0648
     52 H21        16.0650    9.6419    1.5410 H           1 MOL       0.0648
     53 H22        13.8811    8.2287    2.6733 H           1 MOL       0.2100
     54 H23        15.2037    8.7071   -0.3968 H           1 MOL       0.0676
     55 H24        12.7415   10.3255   -0.3866 H           1 MOL       0.0996
     56 H25        15.6751   10.9344   -6.8019 H           1 MOL       0.1820
     57 H26        16.6678   11.4629   -5.5539 H           1 MOL       0.1820
@<TRIPOS>BOND
     1     1     3   1
     2     9     1  am
     3     1    10   2
     4     2     8  ar
     5    13     2  ar
     6     3     7   1
     7     3    17   1
     8     4     5  ar
     9     4    13  ar
    10    29     4   1
    11     5     6  ar
    12    30     5   1
    13     6     8  ar
    14     6    31   1
    15     7    14   1
    16     7    15   1
    17     7    16   1
    18    18     9  am
    19    29    11   1
    20    11    30   2
    21    26    12   1
    22    18    19   2
    23    18    20   2
    24    21    18   1
    25    22    21   1
    26    23    22   1
    27    23    24   1
    28    28    23   1
    29    24    25   1
    30    26    24   1
    31    27    26   1
    32    27    28   1
    33    27    29   1
    34     2    32   1
    35     3    33   1
    36     9    34   1
    37    11    35   1
    38    12    36   1
    39    14    37   1
    40    14    38   1
    41    14    39   1
    42    15    40   1
    43    15    41   1
    44    15    42   1
    45    16    43   1
    46    16    44   1
    47    16    45   1
    48    17    46   1
    49    17    47   1
    50    17    48   1
    51    22    49   1
    52    22    50   1
    53    23    51   1
    54    24    52   1
    55    25    53   1
    56    26    54   1
    57    27    55   1
    58    31    56   1
    59    31    57   1
@<TRIPOS>SUBSTRUCTURE
     1  MOL      1

