@<TRIPOS>MOLECULE
3coy_ligand_023
    57    59
SMALL
GAST_HUCK
****
This file was generated by PARSER (from files_GN.cpp)

@<TRIPOS>ATOM
      1 C1         14.2075    9.6539    0.4346 C.2         1 MOL       0.2465
      2 C2         23.3490    7.4020    6.2655 C.ar        1 MOL       0.0533
      3 C3         13.8928    9.0838   -0.8779 C.3         1 MOL       0.0714
      4 C4         22.6129    7.6328    4.0375 C.ar        1 MOL       0.1613
      5 C5         22.8254    6.2734    3.8112 C.ar        1 MOL       0.1045
      6 C6         23.3170    5.4773    4.8608 C.ar        1 MOL       0.1298
      7 C7         14.3716    9.9218   -2.1361 C.3         1 MOL       0.0226
      8 N1         23.5606    6.0720    6.0613 N.ar        1 MOL      -0.2698
      9 N2         15.4175    9.5530    0.9694 N.am        1 MOL      -0.1294
     10 O1         13.3016   10.2162    1.0394 O.2         1 MOL      -0.3891
     11 C8         22.0906    7.1575    1.9999 C.2         1 MOL       0.1123
     12 O2         22.3708   10.3162    0.4309 O.3         1 MOL      -0.3836
     13 N3         22.8786    8.1801    5.2522 N.ar        1 MOL      -0.2714
     14 C9         13.8804   11.4060   -2.0302 C.3         1 MOL      -0.0527
     15 C10        15.9290    9.9422   -2.2955 C.3         1 MOL      -0.0527
     16 C11        13.7500    9.3167   -3.4404 C.3         1 MOL      -0.0527
     17 N4         14.3418    7.6763   -0.9055 N.4         1 MOL       0.2383
     18 S1         15.8797   10.1661    2.4771 S.o2        1 MOL       0.1859
     19 O1A        15.6841    8.9335    3.6184 O.2         1 MOL      -0.1218
     20 O2A        14.8812   11.4708    2.8874 O.2         1 MOL      -0.1218
     21 O5         17.5027   10.6756    2.4332 O.3         1 MOL      -0.2161
     22 C25        18.5637   10.0371    3.1450 C.3         1 MOL       0.1073
     23 C24        19.8933   10.8381    3.0775 C.3         1 MOL       0.1161
     24 C23        20.4117   11.2014    1.6681 C.3         1 MOL       0.1146
     25 O3         21.1855   12.4056    1.7025 O.3         1 MOL      -0.3864
     26 C22        21.3030   10.0011    1.3253 C.3         1 MOL       0.1385
     27 C21        21.8490    9.5724    2.7051 C.3         1 MOL       0.2010
     28 O4         20.9132   10.0422    3.6919 O.3         1 MOL      -0.3367
     29 N9         22.1519    8.1741    2.8938 N.pl3       1 MOL      -0.1919
     30 N7         22.4914    5.9967    2.5450 N.2         1 MOL      -0.2958
     31 N6         23.5612    4.1682    4.6996 N.pl3       1 MOL      -0.3152
     32 H1         23.5480    7.8162    7.1768 H           1 MOL       0.0996
     33 H2         12.8024    9.0148   -0.9531 H           1 MOL       0.1104
     34 H3         16.0701    9.0176    0.4973 H           1 MOL       0.2167
     35 H4         21.7909    7.2263    1.0264 H           1 MOL       0.1349
     36 H5         21.9757   10.8580   -0.2863 H           1 MOL       0.2101
     37 H6         14.1627   11.9790   -2.9193 H           1 MOL       0.0238
     38 H7         14.3142   11.9015   -1.1602 H           1 MOL       0.0238
     39 H8         12.7939   11.4470   -1.9346 H           1 MOL       0.0238
     40 H9         16.3381    8.9348   -2.2913 H           1 MOL       0.0238
     41 H10        16.4021   10.4935   -1.4802 H           1 MOL       0.0238
     42 H11        16.2196   10.4071   -3.2428 H           1 MOL       0.0238
     43 H12        12.6608    9.2888   -3.3740 H           1 MOL       0.0238
     44 H13        14.1041    8.2999   -3.6136 H           1 MOL       0.0238
     45 H14        14.0106    9.9116   -4.3181 H           1 MOL       0.0238
     46 H15        13.8737    7.1528   -0.1622 H           1 MOL       0.2015
     47 H16        15.3525    7.6202   -0.7649 H           1 MOL       0.2015
     48 H17        14.1111    7.2469   -1.8038 H           1 MOL       0.2015
     49 H18        18.7024    9.0319    2.7407 H           1 MOL       0.0611
     50 H19        18.2808    9.9399    4.1970 H           1 MOL       0.0611
     51 H20        19.7566   11.7519    3.6590 H           1 MOL       0.0648
     52 H21        19.6029   11.3160    0.9398 H           1 MOL       0.0648
     53 H22        20.6978   13.0547    1.1495 H           1 MOL       0.2100
     54 H23        20.6636    9.2266    0.8926 H           1 MOL       0.0676
     55 H24        22.7744   10.1278    2.8922 H           1 MOL       0.0996
     56 H25        23.8957    3.6389    5.4409 H           1 MOL       0.1820
     57 H26        23.4836    3.7598    3.8239 H           1 MOL       0.1820
@<TRIPOS>BOND
     1     1     3   1
     2     9     1  am
     3     1    10   2
     4     2     8  ar
     5    13     2  ar
     6     3     7   1
     7     3    17   1
     8     4     5  ar
     9     4    13  ar
    10    29     4   1
    11     5     6  ar
    12    30     5   1
    13     6     8  ar
    14     6    31   1
    15     7    14   1
    16     7    15   1
    17     7    16   1
    18    18     9  am
    19    29    11   1
    20    11    30   2
    21    26    12   1
    22    18    19   2
    23    18    20   2
    24    21    18   1
    25    22    21   1
    26    23    22   1
    27    23    24   1
    28    28    23   1
    29    24    25   1
    30    26    24   1
    31    27    26   1
    32    27    28   1
    33    27    29   1
    34     2    32   1
    35     3    33   1
    36     9    34   1
    37    11    35   1
    38    12    36   1
    39    14    37   1
    40    14    38   1
    41    14    39   1
    42    15    40   1
    43    15    41   1
    44    15    42   1
    45    16    43   1
    46    16    44   1
    47    16    45   1
    48    17    46   1
    49    17    47   1
    50    17    48   1
    51    22    49   1
    52    22    50   1
    53    23    51   1
    54    24    52   1
    55    25    53   1
    56    26    54   1
    57    27    55   1
    58    31    56   1
    59    31    57   1
@<TRIPOS>SUBSTRUCTURE
     1  MOL      1

