@<TRIPOS>MOLECULE
3coy_ligand_084
    57    59
SMALL
GAST_HUCK
****
This file was generated by PARSER (from files_GN.cpp)

@<TRIPOS>ATOM
      1 C1         15.5242    9.9433    4.8650 C.2         1 MOL       0.2465
      2 C2         20.2640    9.8393    4.0309 C.ar        1 MOL       0.0533
      3 C3         15.7788    9.5771    6.2603 C.3         1 MOL       0.0714
      4 C4         20.6585   11.1255    2.0951 C.ar        1 MOL       0.1613
      5 C5         21.8015   11.6654    2.6753 C.ar        1 MOL       0.1045
      6 C6         22.1524   11.2842    3.9792 C.ar        1 MOL       0.1298
      7 C7         14.4815    9.1762    7.0836 C.3         1 MOL       0.0226
      8 N1         21.3761   10.3658    4.6159 N.ar        1 MOL      -0.2698
      9 N2         15.3882   11.2187    4.5365 N.am        1 MOL      -0.1294
     10 O1         15.3423    9.0587    4.0276 O.2         1 MOL      -0.3891
     11 C8         21.5867   12.4973    0.7085 C.2         1 MOL       0.1123
     12 O2         20.1772    9.5464   -1.5076 O.3         1 MOL      -0.3836
     13 N3         19.8962   10.2259    2.7773 N.ar        1 MOL      -0.2714
     14 C9         13.4930   10.3901    7.1592 C.3         1 MOL      -0.0527
     15 C10        13.7269    7.9610    6.4485 C.3         1 MOL      -0.0527
     16 C11        14.8724    8.7943    8.5515 C.3         1 MOL      -0.0527
     17 N4         16.8435    8.5488    6.3164 N.4         1 MOL       0.2383
     18 S1         14.7790   11.8034    3.0690 S.o2        1 MOL       0.1859
     19 O1A        14.3523   13.4213    3.3199 O.2         1 MOL      -0.1218
     20 O2A        13.4579   10.8553    2.5773 O.2         1 MOL      -0.1218
     21 O5         15.9920   11.7552    1.8735 O.3         1 MOL      -0.2161
     22 C25        16.0539   10.8098    0.7959 C.3         1 MOL       0.1073
     23 C24        17.1662   11.2213   -0.2089 C.3         1 MOL       0.1161
     24 C23        17.7865   10.0530   -1.0277 C.3         1 MOL       0.1146
     25 O3         17.7144   10.2989   -2.4346 O.3         1 MOL      -0.3864
     26 C22        19.2423   10.0025   -0.5311 C.3         1 MOL       0.1385
     27 C21        19.4806   11.4629   -0.0905 C.3         1 MOL       0.2010
     28 O4         18.2405   11.8672    0.4937 O.3         1 MOL      -0.3367
     29 N9         20.5317   11.6685    0.8648 N.pl3       1 MOL      -0.1919
     30 N7         22.3625   12.5143    1.8025 N.2         1 MOL      -0.2958
     31 N6         23.2218   11.8151    4.5954 N.pl3       1 MOL      -0.3152
     32 H1         19.7075    9.1496    4.5350 H           1 MOL       0.0996
     33 H2         16.2270   10.4488    6.7648 H           1 MOL       0.1104
     34 H3         15.5389   11.8743    5.2389 H           1 MOL       0.2167
     35 H4         21.7668   13.0646   -0.1174 H           1 MOL       0.1349
     36 H5         20.0941   10.1662   -2.2641 H           1 MOL       0.2101
     37 H6         12.6290   10.1516    7.7836 H           1 MOL       0.0238
     38 H7         13.1217   10.6572    6.1674 H           1 MOL       0.0238
     39 H8         13.9848   11.2683    7.5853 H           1 MOL       0.0238
     40 H9         14.3862    7.0957    6.3602 H           1 MOL       0.0238
     41 H10        13.3467    8.2047    5.4544 H           1 MOL       0.0238
     42 H11        12.8723    7.6725    7.0636 H           1 MOL       0.0238
     43 H12        15.4133    9.6124    9.0312 H           1 MOL       0.0238
     44 H13        15.5051    7.9041    8.5708 H           1 MOL       0.0238
     45 H14        13.9842    8.5790    9.1505 H           1 MOL       0.0238
     46 H15        17.6120    8.8199    5.6927 H           1 MOL       0.2015
     47 H16        16.4715    7.6383    6.0229 H           1 MOL       0.2015
     48 H17        17.2089    8.4769    7.2765 H           1 MOL       0.2015
     49 H18        15.0917   10.7730    0.2767 H           1 MOL       0.0611
     50 H19        16.2565    9.8276    1.2318 H           1 MOL       0.0611
     51 H20        16.7450   11.9670   -0.8947 H           1 MOL       0.0648
     52 H21        17.2975    9.0972   -0.8398 H           1 MOL       0.0648
     53 H22        18.1674   11.1627   -2.5807 H           1 MOL       0.2100
     54 H23        19.2923    9.3259    0.3243 H           1 MOL       0.0676
     55 H24        19.6578   12.0832   -0.9791 H           1 MOL       0.0996
     56 H25        23.4484   11.5587    5.5065 H           1 MOL       0.1820
     57 H26        23.7585   12.4841    4.1397 H           1 MOL       0.1820
@<TRIPOS>BOND
     1     1     3   1
     2     9     1  am
     3     1    10   2
     4     2     8  ar
     5    13     2  ar
     6     3     7   1
     7     3    17   1
     8     4     5  ar
     9     4    13  ar
    10    29     4   1
    11     5     6  ar
    12    30     5   1
    13     6     8  ar
    14     6    31   1
    15     7    14   1
    16     7    15   1
    17     7    16   1
    18    18     9  am
    19    29    11   1
    20    11    30   2
    21    26    12   1
    22    18    19   2
    23    18    20   2
    24    21    18   1
    25    22    21   1
    26    23    22   1
    27    23    24   1
    28    28    23   1
    29    24    25   1
    30    26    24   1
    31    27    26   1
    32    27    28   1
    33    27    29   1
    34     2    32   1
    35     3    33   1
    36     9    34   1
    37    11    35   1
    38    12    36   1
    39    14    37   1
    40    14    38   1
    41    14    39   1
    42    15    40   1
    43    15    41   1
    44    15    42   1
    45    16    43   1
    46    16    44   1
    47    16    45   1
    48    17    46   1
    49    17    47   1
    50    17    48   1
    51    22    49   1
    52    22    50   1
    53    23    51   1
    54    24    52   1
    55    25    53   1
    56    26    54   1
    57    27    55   1
    58    31    56   1
    59    31    57   1
@<TRIPOS>SUBSTRUCTURE
     1  MOL      1

