@<TRIPOS>MOLECULE
3coy_ligand_013
    57    59
SMALL
GAST_HUCK
****
This file was generated by PARSER (from files_GN.cpp)

@<TRIPOS>ATOM
      1 C1         15.8877    9.7808    4.9141 C.2         1 MOL       0.2465
      2 C2         24.0508   15.6478    1.1741 C.ar        1 MOL       0.0533
      3 C3         15.9958    9.5378    6.3499 C.3         1 MOL       0.0714
      4 C4         23.2870   13.6120    2.0798 C.ar        1 MOL       0.1613
      5 C5         24.2191   13.7043    3.1106 C.ar        1 MOL       0.1045
      6 C6         25.0825   14.8143    3.1473 C.ar        1 MOL       0.1298
      7 C7         14.6107    9.3018    7.0809 C.3         1 MOL       0.0226
      8 N1         24.9740   15.7536    2.1716 N.ar        1 MOL      -0.2698
      9 N2         15.8009   11.0182    4.4536 N.am        1 MOL      -0.1294
     10 O1         15.8201    8.8233    4.1435 O.2         1 MOL      -0.3891
     11 C8         23.1009   11.8928    3.3710 C.2         1 MOL       0.1123
     12 O2         22.0462    9.7459    0.6214 O.3         1 MOL      -0.3836
     13 N3         23.2127   14.5764    1.1248 N.ar        1 MOL      -0.2714
     14 C9         14.8504    8.9588    8.5925 C.3         1 MOL      -0.0527
     15 C10        13.7381   10.6042    7.0270 C.3         1 MOL      -0.0527
     16 C11        13.7915    8.1283    6.4452 C.3         1 MOL      -0.0527
     17 N4         16.9808    8.4609    6.5924 N.4         1 MOL       0.2383
     18 S1         15.4527   11.4429    2.8570 S.o2        1 MOL       0.1859
     19 O1A        14.8424   13.0163    2.9011 O.2         1 MOL      -0.1218
     20 O2A        14.3639   10.3692    2.1319 O.2         1 MOL      -0.1218
     21 O5         16.8732   11.4406    1.9346 O.3         1 MOL      -0.2161
     22 C25        18.1219   11.9326    2.4182 C.3         1 MOL       0.1073
     23 C24        19.1883   11.9523    1.2950 C.3         1 MOL       0.1161
     24 C23        19.6937   10.5472    0.8669 C.3         1 MOL       0.1146
     25 O3         19.6112   10.3997   -0.5510 O.3         1 MOL      -0.3864
     26 C22        21.1401   10.5328    1.3913 C.3         1 MOL       0.1385
     27 C21        21.5243   12.0284    1.3894 C.3         1 MOL       0.2010
     28 O4         20.3199   12.7009    1.7716 O.3         1 MOL      -0.3367
     29 N9         22.5997   12.4636    2.2477 N.pl3       1 MOL      -0.1919
     30 N7         24.0860   12.6405    3.9052 N.2         1 MOL      -0.2958
     31 N6         26.0111   14.9495    4.1070 N.pl3       1 MOL      -0.3152
     32 H1         23.9996   16.3728    0.4573 H           1 MOL       0.0996
     33 H2         16.4544   10.4257    6.8053 H           1 MOL       0.1104
     34 H3         15.8603   11.7456    5.0973 H           1 MOL       0.2167
     35 H4         22.7916   11.0195    3.7975 H           1 MOL       0.1349
     36 H5         21.8949   10.0056   -0.3108 H           1 MOL       0.2101
     37 H6         13.9035    8.8712    9.1318 H           1 MOL       0.0238
     38 H7         15.4436    9.7371    9.0775 H           1 MOL       0.0238
     39 H8         15.3772    8.0095    8.6980 H           1 MOL       0.0238
     40 H9         13.4757   10.8603    5.9978 H           1 MOL       0.0238
     41 H10        14.2770   11.4511    7.4588 H           1 MOL       0.0238
     42 H11        12.8057   10.4796    7.5824 H           1 MOL       0.0238
     43 H12        14.3685    7.2019    6.4521 H           1 MOL       0.0238
     44 H13        13.5184    8.3512    5.4127 H           1 MOL       0.0238
     45 H14        12.8669    7.9530    6.9990 H           1 MOL       0.0238
     46 H15        17.8088    8.6209    6.0170 H           1 MOL       0.2015
     47 H16        16.5781    7.5521    6.3543 H           1 MOL       0.2015
     48 H17        17.2651    8.4655    7.5752 H           1 MOL       0.2015
     49 H18        18.4630   11.3026    3.2440 H           1 MOL       0.0611
     50 H19        17.9696   12.9471    2.7954 H           1 MOL       0.0611
     51 H20        18.7685   12.4885    0.4383 H           1 MOL       0.0648
     52 H21        19.1112    9.7427    1.3227 H           1 MOL       0.0648
     53 H22        19.4268    9.4482   -0.7056 H           1 MOL       0.2100
     54 H23        21.1248   10.1450    2.4109 H           1 MOL       0.0676
     55 H24        21.7702   12.3128    0.3568 H           1 MOL       0.0996
     56 H25        26.6012   15.7191    4.1004 H           1 MOL       0.1820
     57 H26        26.0981   14.2765    4.7986 H           1 MOL       0.1820
@<TRIPOS>BOND
     1     1     3   1
     2     9     1  am
     3     1    10   2
     4     2     8  ar
     5    13     2  ar
     6     3     7   1
     7     3    17   1
     8     4     5  ar
     9     4    13  ar
    10    29     4   1
    11     5     6  ar
    12    30     5   1
    13     6     8  ar
    14     6    31   1
    15     7    14   1
    16     7    15   1
    17     7    16   1
    18    18     9  am
    19    29    11   1
    20    11    30   2
    21    26    12   1
    22    18    19   2
    23    18    20   2
    24    21    18   1
    25    22    21   1
    26    23    22   1
    27    23    24   1
    28    28    23   1
    29    24    25   1
    30    26    24   1
    31    27    26   1
    32    27    28   1
    33    27    29   1
    34     2    32   1
    35     3    33   1
    36     9    34   1
    37    11    35   1
    38    12    36   1
    39    14    37   1
    40    14    38   1
    41    14    39   1
    42    15    40   1
    43    15    41   1
    44    15    42   1
    45    16    43   1
    46    16    44   1
    47    16    45   1
    48    17    46   1
    49    17    47   1
    50    17    48   1
    51    22    49   1
    52    22    50   1
    53    23    51   1
    54    24    52   1
    55    25    53   1
    56    26    54   1
    57    27    55   1
    58    31    56   1
    59    31    57   1
@<TRIPOS>SUBSTRUCTURE
     1  MOL      1

