@<TRIPOS>MOLECULE
3coy_ligand_042
    57    59
SMALL
GAST_HUCK
****
This file was generated by PARSER (from files_GN.cpp)

@<TRIPOS>ATOM
      1 C1         15.6895   10.4804   -0.4931 C.2         1 MOL       0.2465
      2 C2         21.0105    8.4018    7.0541 C.ar        1 MOL       0.0533
      3 C3         15.4012    9.7902   -1.7485 C.3         1 MOL       0.0714
      4 C4         22.3543    9.6364    5.5757 C.ar        1 MOL       0.1613
      5 C5         23.4510    9.4932    6.4217 C.ar        1 MOL       0.1045
      6 C6         23.2895    8.7929    7.6338 C.ar        1 MOL       0.1298
      7 C7         13.8569    9.6547   -2.0896 C.3         1 MOL       0.0226
      8 N1         22.0656    8.2666    7.9089 N.ar        1 MOL      -0.2698
      9 N2         15.9134    9.7578    0.5918 N.am        1 MOL      -0.1294
     10 O1         15.5712   11.7033   -0.4275 O.2         1 MOL      -0.3891
     11 C8         24.0589   10.6303    4.6995 C.2         1 MOL       0.1123
     12 O2         22.2114    9.7498    1.1520 O.3         1 MOL      -0.3836
     13 N3         21.1547    9.0875    5.8906 N.ar        1 MOL      -0.2714
     14 C9         13.0264    9.2550   -0.8228 C.3         1 MOL      -0.0527
     15 C10        13.2516   10.9647   -2.6811 C.3         1 MOL      -0.0527
     16 C11        13.6378    8.5170   -3.1518 C.3         1 MOL      -0.0527
     17 N4         16.1878   10.4503   -2.8151 N.4         1 MOL       0.2383
     18 S1         15.9673   10.3192    2.1788 S.o2        1 MOL       0.1859
     19 O1A        15.9769    9.0275    3.2757 O.2         1 MOL      -0.1218
     20 O2A        14.6358   11.3434    2.4028 O.2         1 MOL      -0.1218
     21 O5         17.3430   11.2927    2.3256 O.3         1 MOL      -0.2161
     22 C25        18.3013   11.2433    3.3802 C.3         1 MOL       0.1073
     23 C24        19.7278   11.0367    2.8133 C.3         1 MOL       0.1161
     24 C23        20.0533    9.5971    2.3755 C.3         1 MOL       0.1146
     25 O3         19.5076    9.2778    1.0964 O.3         1 MOL      -0.3864
     26 C22        21.5944    9.5883    2.4292 C.3         1 MOL       0.1385
     27 C21        21.9379   10.7622    3.3885 C.3         1 MOL       0.2010
     28 O4         20.6903   11.3130    3.8338 O.3         1 MOL      -0.3367
     29 N9         22.7450   10.3593    4.5116 N.pl3       1 MOL      -0.1919
     30 N7         24.4995   10.1083    5.8592 N.2         1 MOL      -0.2958
     31 N6         24.3012    8.6243    8.5014 N.pl3       1 MOL      -0.3152
     32 H1         20.1135    7.9751    7.2830 H           1 MOL       0.0996
     33 H2         15.8146    8.7817   -1.6843 H           1 MOL       0.1104
     34 H3         16.0181    8.8067    0.4670 H           1 MOL       0.2167
     35 H4         24.6518   11.1459    4.0495 H           1 MOL       0.1349
     36 H5         21.6033   10.3235    0.6260 H           1 MOL       0.2101
     37 H6         11.9793    9.0633   -1.0779 H           1 MOL       0.0238
     38 H7         13.0387   10.0563   -0.0779 H           1 MOL       0.0238
     39 H8         13.4331    8.3507   -0.3637 H           1 MOL       0.0238
     40 H9         13.7277   11.2261   -3.6255 H           1 MOL       0.0238
     41 H10        13.3674   11.8034   -1.9940 H           1 MOL       0.0238
     42 H11        12.1832   10.8407   -2.8720 H           1 MOL       0.0238
     43 H12        13.9365    7.5497   -2.7446 H           1 MOL       0.0238
     44 H13        14.2182    8.7082   -4.0539 H           1 MOL       0.0238
     45 H14        12.5845    8.4491   -3.4349 H           1 MOL       0.0238
     46 H15        17.1849   10.4036   -2.5879 H           1 MOL       0.2015
     47 H16        15.9113   11.4320   -2.8980 H           1 MOL       0.2015
     48 H17        16.0265    9.9788   -3.7068 H           1 MOL       0.2015
     49 H18        18.0757   10.4779    4.1229 H           1 MOL       0.0611
     50 H19        18.2623   12.2192    3.8866 H           1 MOL       0.0611
     51 H20        19.8816   11.7392    1.9831 H           1 MOL       0.0648
     52 H21        19.6612    8.8809    3.1115 H           1 MOL       0.0648
     53 H22        19.2752    8.3152    1.1248 H           1 MOL       0.2100
     54 H23        21.9532    8.6342    2.8366 H           1 MOL       0.0676
     55 H24        22.4439   11.5609    2.8325 H           1 MOL       0.0996
     56 H25        24.1585    8.1273    9.3267 H           1 MOL       0.1820
     57 H26        25.1765    8.9918    8.3020 H           1 MOL       0.1820
@<TRIPOS>BOND
     1     1     3   1
     2     9     1  am
     3     1    10   2
     4     2     8  ar
     5    13     2  ar
     6     3     7   1
     7     3    17   1
     8     4     5  ar
     9     4    13  ar
    10    29     4   1
    11     5     6  ar
    12    30     5   1
    13     6     8  ar
    14     6    31   1
    15     7    14   1
    16     7    15   1
    17     7    16   1
    18    18     9  am
    19    29    11   1
    20    11    30   2
    21    26    12   1
    22    18    19   2
    23    18    20   2
    24    21    18   1
    25    22    21   1
    26    23    22   1
    27    23    24   1
    28    28    23   1
    29    24    25   1
    30    26    24   1
    31    27    26   1
    32    27    28   1
    33    27    29   1
    34     2    32   1
    35     3    33   1
    36     9    34   1
    37    11    35   1
    38    12    36   1
    39    14    37   1
    40    14    38   1
    41    14    39   1
    42    15    40   1
    43    15    41   1
    44    15    42   1
    45    16    43   1
    46    16    44   1
    47    16    45   1
    48    17    46   1
    49    17    47   1
    50    17    48   1
    51    22    49   1
    52    22    50   1
    53    23    51   1
    54    24    52   1
    55    25    53   1
    56    26    54   1
    57    27    55   1
    58    31    56   1
    59    31    57   1
@<TRIPOS>SUBSTRUCTURE
     1  MOL      1

