@<TRIPOS>MOLECULE
3coy_ligand_024
    57    59
SMALL
GAST_HUCK
****
This file was generated by PARSER (from files_GN.cpp)

@<TRIPOS>ATOM
      1 C1         14.2309    9.7552    0.4666 C.2         1 MOL       0.2465
      2 C2         20.9879   11.7644    0.1159 C.ar        1 MOL       0.0533
      3 C3         13.9829    9.3107   -0.9029 C.3         1 MOL       0.0714
      4 C4         21.7304   10.6464    2.0538 C.ar        1 MOL       0.1613
      5 C5         22.6498   11.6604    2.3008 C.ar        1 MOL       0.1045
      6 C6         22.7215   12.7463    1.4160 C.ar        1 MOL       0.1298
      7 C7         14.6036   10.2329   -2.0380 C.3         1 MOL       0.0226
      8 N1         21.8874   12.7624    0.3410 N.ar        1 MOL      -0.2698
      9 N2         15.4400    9.6677    1.0000 N.am        1 MOL      -0.1294
     10 O1         13.2991   10.2433    1.0977 O.2         1 MOL      -0.3891
     11 C8         22.8540   10.1742    3.8351 C.2         1 MOL       0.1123
     12 O2         20.5994    6.4861    4.4449 O.3         1 MOL      -0.3836
     13 N3         20.9146   10.7083    0.9695 N.ar        1 MOL      -0.2714
     14 C9         14.2500   11.7421   -1.7971 C.3         1 MOL      -0.0527
     15 C10        16.1609   10.1122   -2.1274 C.3         1 MOL      -0.0527
     16 C11        13.9884    9.8313   -3.4208 C.3         1 MOL      -0.0527
     17 N4         14.3675    7.8861   -1.0218 N.4         1 MOL       0.2383
     18 S1         15.8732   10.1750    2.5458 S.o2        1 MOL       0.1859
     19 O1A        15.5257    8.9549    3.6617 O.2         1 MOL      -0.1218
     20 O2A        14.9709   11.5252    3.0106 O.2         1 MOL      -0.1218
     21 O5         17.5232   10.5576    2.5736 O.3         1 MOL      -0.2161
     22 C25        18.3722   10.4101    3.7135 C.3         1 MOL       0.1073
     23 C24        18.9329    8.9699    3.8083 C.3         1 MOL       0.1161
     24 C23        19.7647    8.7109    5.0830 C.3         1 MOL       0.1146
     25 O3         18.9939    8.0579    6.0941 O.3         1 MOL      -0.3864
     26 C22        20.9352    7.8747    4.5474 C.3         1 MOL       0.1385
     27 C21        21.1201    8.4835    3.1350 C.3         1 MOL       0.2010
     28 O4         19.7653    8.6637    2.6792 O.3         1 MOL      -0.3367
     29 N9         21.8571    9.7264    3.0341 N.pl3       1 MOL      -0.1919
     30 N7         23.3364   11.3546    3.4061 N.2         1 MOL      -0.2958
     31 N6         23.5896   13.7542    1.6000 N.pl3       1 MOL      -0.3152
     32 H1         20.3724   11.8064   -0.6955 H           1 MOL       0.0996
     33 H2         12.8961    9.3115   -1.0515 H           1 MOL       0.1104
     34 H3         16.1207    9.2002    0.4904 H           1 MOL       0.2167
     35 H4         23.2229    9.6971    4.6567 H           1 MOL       0.1349
     36 H5         20.4885    6.1726    5.3745 H           1 MOL       0.2101
     37 H6         14.5969   12.3670   -2.6238 H           1 MOL       0.0238
     38 H7         14.7274   12.1129   -0.8871 H           1 MOL       0.0238
     39 H8         13.1695   11.8800   -1.6950 H           1 MOL       0.0238
     40 H9         16.4636    9.0780   -2.2767 H           1 MOL       0.0238
     41 H10        16.6411   10.4789   -1.2209 H           1 MOL       0.0238
     42 H11        16.5474   10.6939   -2.9660 H           1 MOL       0.0238
     43 H12        12.8997    9.9233   -3.4014 H           1 MOL       0.0238
     44 H13        14.2389    8.8033   -3.6780 H           1 MOL       0.0238
     45 H14        14.3601   10.4756   -4.2195 H           1 MOL       0.0238
     46 H15        13.8278    7.3280   -0.3572 H           1 MOL       0.2015
     47 H16        15.3629    7.7622   -0.8181 H           1 MOL       0.2015
     48 H17        14.1730    7.5510   -1.9665 H           1 MOL       0.2015
     49 H18        17.8210   10.6679    4.6212 H           1 MOL       0.0611
     50 H19        19.1964   11.1150    3.6042 H           1 MOL       0.0611
     51 H20        18.0984    8.2644    3.7761 H           1 MOL       0.0648
     52 H21        20.1549    9.6475    5.4869 H           1 MOL       0.0648
     53 H22        19.3683    8.3530    6.9545 H           1 MOL       0.2100
     54 H23        21.8221    7.9662    5.1740 H           1 MOL       0.0676
     55 H24        21.6072    7.7655    2.4729 H           1 MOL       0.0996
     56 H25        23.6137   14.4964    0.9721 H           1 MOL       0.1820
     57 H26        24.1930   13.7480    2.3622 H           1 MOL       0.1820
@<TRIPOS>BOND
     1     1     3   1
     2     9     1  am
     3     1    10   2
     4     2     8  ar
     5    13     2  ar
     6     3     7   1
     7     3    17   1
     8     4     5  ar
     9     4    13  ar
    10    29     4   1
    11     5     6  ar
    12    30     5   1
    13     6     8  ar
    14     6    31   1
    15     7    14   1
    16     7    15   1
    17     7    16   1
    18    18     9  am
    19    29    11   1
    20    11    30   2
    21    26    12   1
    22    18    19   2
    23    18    20   2
    24    21    18   1
    25    22    21   1
    26    23    22   1
    27    23    24   1
    28    28    23   1
    29    24    25   1
    30    26    24   1
    31    27    26   1
    32    27    28   1
    33    27    29   1
    34     2    32   1
    35     3    33   1
    36     9    34   1
    37    11    35   1
    38    12    36   1
    39    14    37   1
    40    14    38   1
    41    14    39   1
    42    15    40   1
    43    15    41   1
    44    15    42   1
    45    16    43   1
    46    16    44   1
    47    16    45   1
    48    17    46   1
    49    17    47   1
    50    17    48   1
    51    22    49   1
    52    22    50   1
    53    23    51   1
    54    24    52   1
    55    25    53   1
    56    26    54   1
    57    27    55   1
    58    31    56   1
    59    31    57   1
@<TRIPOS>SUBSTRUCTURE
     1  MOL      1

