@<TRIPOS>MOLECULE
3coy_ligand_083
    57    59
SMALL
GAST_HUCK
****
This file was generated by PARSER (from files_GN.cpp)

@<TRIPOS>ATOM
      1 C1         20.0040    6.5393    4.2012 C.2         1 MOL       0.2465
      2 C2         16.5722    8.8454    2.5478 C.ar        1 MOL       0.0533
      3 C3         19.2808    5.2776    4.0383 C.3         1 MOL       0.0714
      4 C4         16.3167   10.3292    0.7374 C.ar        1 MOL       0.1613
      5 C5         14.9366   10.1129    0.7324 C.ar        1 MOL       0.1045
      6 C6         14.3867    9.2287    1.6780 C.ar        1 MOL       0.1298
      7 C7         20.1439    4.0529    3.5145 C.3         1 MOL       0.0226
      8 N1         15.2282    8.6196    2.5569 N.ar        1 MOL      -0.2698
      9 N2         20.4160    7.2022    3.1317 N.am        1 MOL      -0.1294
     10 O1         20.2524    6.9681    5.3262 O.2         1 MOL      -0.3891
     11 C8         15.4220   11.4852   -0.8499 C.2         1 MOL       0.1123
     12 O2         19.0394   13.8362   -0.4851 O.3         1 MOL      -0.3836
     13 N3         17.1133    9.6967    1.6367 N.ar        1 MOL      -0.2714
     14 C9         21.0919    3.5116    4.6315 C.3         1 MOL      -0.0527
     15 C10        19.2054    2.8885    3.0465 C.3         1 MOL      -0.0527
     16 C11        21.0299    4.4513    2.2842 C.3         1 MOL      -0.0527
     17 N4         18.5850    4.9389    5.3007 N.4         1 MOL       0.2383
     18 S1         21.4166    8.5646    3.1407 S.o2        1 MOL       0.1859
     19 O1A        22.8475    8.0508    2.4156 O.2         1 MOL      -0.1218
     20 O2A        21.7154    9.1478    4.6981 O.2         1 MOL      -0.1218
     21 O5         20.7278    9.7727    2.1681 O.3         1 MOL      -0.2161
     22 C25        20.6797    9.7235    0.7440 C.3         1 MOL       0.1073
     23 C24        19.9980   10.9655    0.1022 C.3         1 MOL       0.1161
     24 C23        19.5203   12.0523    1.0878 C.3         1 MOL       0.1146
     25 O3         20.5822   12.8979    1.5324 O.3         1 MOL      -0.3864
     26 C22        18.4454   12.7792    0.2714 C.3         1 MOL       0.1385
     27 C21        17.8971   11.6656   -0.6566 C.3         1 MOL       0.2010
     28 O4         18.8335   10.5803   -0.6424 O.3         1 MOL      -0.3367
     29 N9         16.6020   11.1846   -0.2607 N.pl3       1 MOL      -0.1919
     30 N7         14.3989   10.8405   -0.2548 N.2         1 MOL      -0.2958
     31 N6         13.0677    8.9703    1.7209 N.pl3       1 MOL      -0.3152
     32 H1         17.1745    8.3651    3.2172 H           1 MOL       0.0996
     33 H2         18.4716    5.4545    3.3168 H           1 MOL       0.1104
     34 H3         20.1750    6.8378    2.2655 H           1 MOL       0.2167
     35 H4         15.3044   12.1180   -1.6468 H           1 MOL       0.1349
     36 H5         18.3366   14.1536   -1.0877 H           1 MOL       0.2101
     37 H6         21.7126    2.6956    4.2585 H           1 MOL       0.0238
     38 H7         20.5168    3.1290    5.4734 H           1 MOL       0.0238
     39 H8         21.7534    4.2983    4.9984 H           1 MOL       0.0238
     40 H9         18.5388    3.2217    2.2468 H           1 MOL       0.0238
     41 H10        18.5864    2.5171    3.8637 H           1 MOL       0.0238
     42 H11        19.7851    2.0415    2.6711 H           1 MOL       0.0238
     43 H12        21.8034    5.1645    2.5677 H           1 MOL       0.0238
     44 H13        20.4221    4.8940    1.4964 H           1 MOL       0.0238
     45 H14        21.5321    3.5718    1.8652 H           1 MOL       0.0238
     46 H15        17.9579    5.6993    5.5626 H           1 MOL       0.2015
     47 H16        19.2682    4.7902    6.0483 H           1 MOL       0.2015
     48 H17        18.0356    4.0877    5.1751 H           1 MOL       0.2015
     49 H18        20.1460    8.8157    0.4534 H           1 MOL       0.0611
     50 H19        21.7012    9.6366    0.3694 H           1 MOL       0.0611
     51 H20        20.6946   11.4234   -0.6095 H           1 MOL       0.0648
     52 H21        19.0486   11.6040    1.9676 H           1 MOL       0.0648
     53 H22        21.4128   12.4469    1.2483 H           1 MOL       0.2100
     54 H23        17.6735   13.2033    0.9255 H           1 MOL       0.0676
     55 H24        17.8508   12.0329   -1.6848 H           1 MOL       0.0996
     56 H25        12.7169    8.3544    2.3816 H           1 MOL       0.1820
     57 H26        12.4687    9.3974    1.0910 H           1 MOL       0.1820
@<TRIPOS>BOND
     1     1     3   1
     2     9     1  am
     3     1    10   2
     4     2     8  ar
     5    13     2  ar
     6     3     7   1
     7     3    17   1
     8     4     5  ar
     9     4    13  ar
    10    29     4   1
    11     5     6  ar
    12    30     5   1
    13     6     8  ar
    14     6    31   1
    15     7    14   1
    16     7    15   1
    17     7    16   1
    18    18     9  am
    19    29    11   1
    20    11    30   2
    21    26    12   1
    22    18    19   2
    23    18    20   2
    24    21    18   1
    25    22    21   1
    26    23    22   1
    27    23    24   1
    28    28    23   1
    29    24    25   1
    30    26    24   1
    31    27    26   1
    32    27    28   1
    33    27    29   1
    34     2    32   1
    35     3    33   1
    36     9    34   1
    37    11    35   1
    38    12    36   1
    39    14    37   1
    40    14    38   1
    41    14    39   1
    42    15    40   1
    43    15    41   1
    44    15    42   1
    45    16    43   1
    46    16    44   1
    47    16    45   1
    48    17    46   1
    49    17    47   1
    50    17    48   1
    51    22    49   1
    52    22    50   1
    53    23    51   1
    54    24    52   1
    55    25    53   1
    56    26    54   1
    57    27    55   1
    58    31    56   1
    59    31    57   1
@<TRIPOS>SUBSTRUCTURE
     1  MOL      1

