@<TRIPOS>MOLECULE
3coy_ligand_005
    57    59
SMALL
GAST_HUCK
****
This file was generated by PARSER (from files_GN.cpp)

@<TRIPOS>ATOM
      1 C1         14.3914    9.7558   -0.3321 C.2         1 MOL       0.2465
      2 C2         19.8315    9.8227   -0.8337 C.ar        1 MOL       0.0533
      3 C3         15.2722    9.7970   -1.4998 C.3         1 MOL       0.0714
      4 C4         19.4365    9.5993    1.4849 C.ar        1 MOL       0.1613
      5 C5         20.3355    8.5407    1.5457 C.ar        1 MOL       0.1045
      6 C6         20.9708    8.1127    0.3664 C.ar        1 MOL       0.1298
      7 C7         14.9986   10.8497   -2.6709 C.3         1 MOL       0.0226
      8 N1         20.6905    8.7699   -0.7933 N.ar        1 MOL      -0.2698
      9 N2         14.4968    8.7260    0.5185 N.am        1 MOL      -0.1294
     10 O1         13.7886   10.7714   -0.0039 O.2         1 MOL      -0.3891
     11 C8         19.5877    8.9078    3.5192 C.2         1 MOL       0.1123
     12 O2         17.6734   12.4727    1.4473 O.3         1 MOL      -0.3836
     13 N3         19.2099   10.2337    0.3017 N.ar        1 MOL      -0.2714
     14 C9         13.8254   10.3305   -3.5577 C.3         1 MOL      -0.0527
     15 C10        14.6648   12.3035   -2.1855 C.3         1 MOL      -0.0527
     16 C11        16.2647   10.9580   -3.5894 C.3         1 MOL      -0.0527
     17 N4         16.6450    9.8980   -0.9908 N.4         1 MOL       0.2383
     18 S1         13.6446    8.5997    1.9803 S.o2        1 MOL       0.1859
     19 O1A        13.1777    6.9786    2.1025 O.2         1 MOL      -0.1218
     20 O2A        12.3020    9.6261    2.0806 O.2         1 MOL      -0.1218
     21 O5         14.7363    8.8753    3.2494 O.3         1 MOL      -0.2161
     22 C25        14.6312    9.9070    4.2364 C.3         1 MOL       0.1073
     23 C24        15.8381   10.8785    4.1789 C.3         1 MOL       0.1161
     24 C23        15.8279   11.8506    2.9753 C.3         1 MOL       0.1146
     25 O3         15.9405   13.2074    3.4137 O.3         1 MOL      -0.3864
     26 C22        17.0484   11.4040    2.1574 C.3         1 MOL       0.1385
     27 C21        17.9696   10.7552    3.2071 C.3         1 MOL       0.2010
     28 O4         17.0467   10.1105    4.1043 O.3         1 MOL      -0.3367
     29 N9         18.9441    9.7985    2.7309 N.pl3       1 MOL      -0.1919
     30 N7         20.4215    8.1239    2.8182 N.2         1 MOL      -0.2958
     31 N6         21.8379    7.0893    0.3604 N.pl3       1 MOL      -0.3152
     32 H1         19.6424   10.2968   -1.7140 H           1 MOL       0.0996
     33 H2         15.2279    8.8094   -1.9699 H           1 MOL       0.1104
     34 H3         15.1819    8.0514    0.3294 H           1 MOL       0.2167
     35 H4         19.4585    8.8172    4.5319 H           1 MOL       0.1349
     36 H5         16.9500   12.8906    0.9269 H           1 MOL       0.2101
     37 H6         13.6353   11.0021   -4.3994 H           1 MOL       0.0238
     38 H7         12.8991   10.2449   -2.9791 H           1 MOL       0.0238
     39 H8         14.0504    9.3388   -3.9747 H           1 MOL       0.0238
     40 H9         15.3633   12.6185   -1.4046 H           1 MOL       0.0238
     41 H10        13.6455   12.3962   -1.8114 H           1 MOL       0.0238
     42 H11        14.7507   13.0161   -3.0261 H           1 MOL       0.0238
     43 H12        16.5901    9.9784   -3.9381 H           1 MOL       0.0238
     44 H13        17.0979   11.4230   -3.0523 H           1 MOL       0.0238
     45 H14        16.0691   11.5766   -4.4736 H           1 MOL       0.0238
     46 H15        16.8067    9.1466   -0.3112 H           1 MOL       0.2015
     47 H16        16.7919   10.8087   -0.5380 H           1 MOL       0.2015
     48 H17        17.3128    9.7814   -1.7559 H           1 MOL       0.2015
     49 H18        14.6149    9.4079    5.2104 H           1 MOL       0.0611
     50 H19        13.6953   10.4663    4.1436 H           1 MOL       0.0611
     51 H20        15.8579   11.4471    5.1139 H           1 MOL       0.0648
     52 H21        14.9174   11.7653    2.3738 H           1 MOL       0.0648
     53 H22        15.9248   13.7318    2.5817 H           1 MOL       0.2100
     54 H23        16.7317   10.6350    1.4459 H           1 MOL       0.0676
     55 H24        18.5086   11.5376    3.7531 H           1 MOL       0.0996
     56 H25        22.2673    6.8162   -0.4690 H           1 MOL       0.1820
     57 H26        22.0381    6.6158    1.1855 H           1 MOL       0.1820
@<TRIPOS>BOND
     1     1     3   1
     2     9     1  am
     3     1    10   2
     4     2     8  ar
     5    13     2  ar
     6     3     7   1
     7     3    17   1
     8     4     5  ar
     9     4    13  ar
    10    29     4   1
    11     5     6  ar
    12    30     5   1
    13     6     8  ar
    14     6    31   1
    15     7    14   1
    16     7    15   1
    17     7    16   1
    18    18     9  am
    19    29    11   1
    20    11    30   2
    21    26    12   1
    22    18    19   2
    23    18    20   2
    24    21    18   1
    25    22    21   1
    26    23    22   1
    27    23    24   1
    28    28    23   1
    29    24    25   1
    30    26    24   1
    31    27    26   1
    32    27    28   1
    33    27    29   1
    34     2    32   1
    35     3    33   1
    36     9    34   1
    37    11    35   1
    38    12    36   1
    39    14    37   1
    40    14    38   1
    41    14    39   1
    42    15    40   1
    43    15    41   1
    44    15    42   1
    45    16    43   1
    46    16    44   1
    47    16    45   1
    48    17    46   1
    49    17    47   1
    50    17    48   1
    51    22    49   1
    52    22    50   1
    53    23    51   1
    54    24    52   1
    55    25    53   1
    56    26    54   1
    57    27    55   1
    58    31    56   1
    59    31    57   1
@<TRIPOS>SUBSTRUCTURE
     1  MOL      1

