@<TRIPOS>MOLECULE
3coy_ligand_056
    57    59
SMALL
GAST_HUCK
****
This file was generated by PARSER (from files_GN.cpp)

@<TRIPOS>ATOM
      1 C1         22.2210    6.0060    2.4352 C.2         1 MOL       0.2465
      2 C2         17.0151    8.5524    6.0808 C.ar        1 MOL       0.0533
      3 C3         21.6369    5.1898    3.5113 C.3         1 MOL       0.0714
      4 C4         16.8372   10.2281    4.4393 C.ar        1 MOL       0.1613
      5 C5         16.0968   11.0281    5.3029 C.ar        1 MOL       0.1045
      6 C6         15.8077   10.5432    6.5908 C.ar        1 MOL       0.1298
      7 C7         20.3499    4.3066    3.1608 C.3         1 MOL       0.0226
      8 N1         16.2788    9.3146    6.9423 N.ar        1 MOL      -0.2698
      9 N2         21.4628    6.6631    1.5740 N.am        1 MOL      -0.1294
     10 O1         23.4382    6.1553    2.3734 O.2         1 MOL      -0.3891
     11 C8         16.3494   12.0755    3.4388 C.2         1 MOL       0.1123
     12 O2         16.8228   11.5268    0.1230 O.3         1 MOL      -0.3836
     13 N3         17.2890    9.0073    4.8255 N.ar        1 MOL      -0.2714
     14 C9         20.3351    3.8046    1.6757 C.3         1 MOL      -0.0527
     15 C10        20.2500    3.0243    4.0538 C.3         1 MOL      -0.0527
     16 C11        19.0386    5.1256    3.4520 C.3         1 MOL      -0.0527
     17 N4         22.7206    4.3932    4.1358 N.4         1 MOL       0.2383
     18 S1         21.9877    7.5402    0.2264 S.o2        1 MOL       0.1859
     19 O1A        20.8570    7.3494   -1.0176 O.2         1 MOL      -0.1218
     20 O2A        23.5133    7.0956   -0.3544 O.2         1 MOL      -0.1218
     21 O5         22.0156    9.1976    0.5866 O.3         1 MOL      -0.2161
     22 C25        21.2091    9.8052    1.5955 C.3         1 MOL       0.1073
     23 C24        19.6899    9.6210    1.3374 C.3         1 MOL       0.1161
     24 C23        19.0847   10.5053    0.2120 C.3         1 MOL       0.1146
     25 O3         18.5835    9.6973   -0.8586 O.3         1 MOL      -0.3864
     26 C22        17.9673   11.2810    0.9409 C.3         1 MOL       0.1385
     27 C21        17.6693   10.3595    2.1436 C.3         1 MOL       0.2010
     28 O4         18.9783    9.9397    2.5398 O.3         1 MOL      -0.3367
     29 N9         16.9831   10.8945    3.2822 N.pl3       1 MOL      -0.1919
     30 N7         15.8036   12.1696    4.6638 N.2         1 MOL      -0.2958
     31 N6         15.0819   11.2493    7.4738 N.pl3       1 MOL      -0.3152
     32 H1         17.3653    7.6375    6.3774 H           1 MOL       0.0996
     33 H2         21.3575    5.8981    4.2967 H           1 MOL       0.1104
     34 H3         20.5068    6.5619    1.6510 H           1 MOL       0.2167
     35 H4         16.2768   12.8086    2.7365 H           1 MOL       0.1349
     36 H5         16.4620   12.3879    0.4274 H           1 MOL       0.2101
     37 H6         19.5058    3.1093    1.4997 H           1 MOL       0.0238
     38 H7         21.2775    3.2950    1.4477 H           1 MOL       0.0238
     39 H8         20.2061    4.6257    0.9730 H           1 MOL       0.0238
     40 H9         20.2736    3.2871    5.1137 H           1 MOL       0.0238
     41 H10        21.0784    2.3415    3.8513 H           1 MOL       0.0238
     42 H11        19.3208    2.4812    3.8599 H           1 MOL       0.0238
     43 H12        19.0331    6.0869    2.9424 H           1 MOL       0.0238
     44 H13        18.9362    5.3281    4.5236 H           1 MOL       0.0238
     45 H14        18.1500    4.5730    3.1311 H           1 MOL       0.0238
     46 H15        23.4508    5.0232    4.4841 H           1 MOL       0.2015
     47 H16        23.1372    3.7611    3.4460 H           1 MOL       0.2015
     48 H17        22.3567    3.8535    4.9261 H           1 MOL       0.2015
     49 H18        21.4577   10.8667    1.6092 H           1 MOL       0.0611
     50 H19        21.4781    9.3849    2.5717 H           1 MOL       0.0611
     51 H20        19.4861    8.5669    1.1260 H           1 MOL       0.0648
     52 H21        19.8142   11.2005   -0.2056 H           1 MOL       0.0648
     53 H22        17.9997    9.0270   -0.4421 H           1 MOL       0.2100
     54 H23        18.3730   12.2369    1.2907 H           1 MOL       0.0676
     55 H24        17.0978    9.4885    1.7933 H           1 MOL       0.0996
     56 H25        14.8969   10.8827    8.3532 H           1 MOL       0.1820
     57 H26        14.7342   12.1214    7.2335 H           1 MOL       0.1820
@<TRIPOS>BOND
     1     1     3   1
     2     9     1  am
     3     1    10   2
     4     2     8  ar
     5    13     2  ar
     6     3     7   1
     7     3    17   1
     8     4     5  ar
     9     4    13  ar
    10    29     4   1
    11     5     6  ar
    12    30     5   1
    13     6     8  ar
    14     6    31   1
    15     7    14   1
    16     7    15   1
    17     7    16   1
    18    18     9  am
    19    29    11   1
    20    11    30   2
    21    26    12   1
    22    18    19   2
    23    18    20   2
    24    21    18   1
    25    22    21   1
    26    23    22   1
    27    23    24   1
    28    28    23   1
    29    24    25   1
    30    26    24   1
    31    27    26   1
    32    27    28   1
    33    27    29   1
    34     2    32   1
    35     3    33   1
    36     9    34   1
    37    11    35   1
    38    12    36   1
    39    14    37   1
    40    14    38   1
    41    14    39   1
    42    15    40   1
    43    15    41   1
    44    15    42   1
    45    16    43   1
    46    16    44   1
    47    16    45   1
    48    17    46   1
    49    17    47   1
    50    17    48   1
    51    22    49   1
    52    22    50   1
    53    23    51   1
    54    24    52   1
    55    25    53   1
    56    26    54   1
    57    27    55   1
    58    31    56   1
    59    31    57   1
@<TRIPOS>SUBSTRUCTURE
     1  MOL      1

