@<TRIPOS>MOLECULE
3coy_ligand_071
    57    59
SMALL
GAST_HUCK
****
This file was generated by PARSER (from files_GN.cpp)

@<TRIPOS>ATOM
      1 C1         21.9961    6.0120    2.0909 C.2         1 MOL       0.2465
      2 C2         13.9342   11.0545    0.1447 C.ar        1 MOL       0.0533
      3 C3         21.2693    5.1205    2.9958 C.3         1 MOL       0.0714
      4 C4         16.0369   11.4435    1.1259 C.ar        1 MOL       0.1613
      5 C5         15.4392   11.6687    2.3590 C.ar        1 MOL       0.1045
      6 C6         14.0418   11.5872    2.4622 C.ar        1 MOL       0.1298
      7 C7         20.4592    5.8379    4.1548 C.3         1 MOL       0.0226
      8 N1         13.3277   11.2794    1.3451 N.ar        1 MOL      -0.2698
      9 N2         21.3305    6.7392    1.2096 N.am        1 MOL      -0.1294
     10 O1         23.2199    6.0553    2.1437 O.2         1 MOL      -0.3891
     11 C8         17.5582   11.8875    2.6002 C.2         1 MOL       0.1123
     12 O2         19.3379   13.1321   -1.2730 O.3         1 MOL      -0.3836
     13 N3         15.2884   11.1402    0.0330 N.ar        1 MOL      -0.2714
     14 C9         19.6145    4.7815    4.9432 C.3         1 MOL      -0.0527
     15 C10        21.4686    6.5100    5.1454 C.3         1 MOL      -0.0527
     16 C11        19.4713    6.9393    3.6447 C.3         1 MOL      -0.0527
     17 N4         20.4488    4.1916    2.1916 N.4         1 MOL       0.2383
     18 S1         21.9896    7.7625    0.0466 S.o2        1 MOL       0.1859
     19 O1A        20.7958    8.0327   -1.1177 O.2         1 MOL      -0.1218
     20 O2A        23.3935    7.1006   -0.6173 O.2         1 MOL      -0.1218
     21 O5         22.4368    9.2212    0.7824 O.3         1 MOL      -0.2161
     22 C25        21.6173   10.1877    1.4379 C.3         1 MOL       0.1073
     23 C24        20.6356   10.9161    0.4844 C.3         1 MOL       0.1161
     24 C23        20.5555   12.4382    0.7209 C.3         1 MOL       0.1146
     25 O3         21.6669   13.1175    0.1304 O.3         1 MOL      -0.3864
     26 C22        19.1958   12.7924    0.1039 C.3         1 MOL       0.1385
     27 C21        18.3831   11.4858    0.2846 C.3         1 MOL       0.2010
     28 O4         19.2927   10.4379    0.6577 O.3         1 MOL      -0.3367
     29 N9         17.3645   11.5966    1.2919 N.pl3       1 MOL      -0.1919
     30 N7         16.3905   11.9397    3.2614 N.2         1 MOL      -0.2958
     31 N6         13.4285   11.8065    3.6337 N.pl3       1 MOL      -0.3152
     32 H1         13.3704   10.8235   -0.6745 H           1 MOL       0.0996
     33 H2         22.0078    4.4685    3.4784 H           1 MOL       0.1104
     34 H3         20.3675    6.6704    1.2113 H           1 MOL       0.2167
     35 H4         18.4659   12.0499    3.0420 H           1 MOL       0.1349
     36 H5         18.4414   13.3610   -1.5909 H           1 MOL       0.2101
     37 H6         19.1420    5.2335    5.8195 H           1 MOL       0.0238
     38 H7         20.2443    3.9544    5.2782 H           1 MOL       0.0238
     39 H8         18.8182    4.3718    4.3190 H           1 MOL       0.0238
     40 H9         22.0558    7.2839    4.6437 H           1 MOL       0.0238
     41 H10        22.1632    5.7701    5.5516 H           1 MOL       0.0238
     42 H11        20.9435    6.9814    5.9792 H           1 MOL       0.0238
     43 H12        18.8021    6.5343    2.8829 H           1 MOL       0.0238
     44 H13        20.0166    7.7868    3.2197 H           1 MOL       0.0238
     45 H14        18.8571    7.3249    4.4671 H           1 MOL       0.0238
     46 H15        21.0343    3.7333    1.4921 H           1 MOL       0.2015
     47 H16        19.6989    4.6966    1.7241 H           1 MOL       0.2015
     48 H17        20.0454    3.4718    2.7923 H           1 MOL       0.2015
     49 H18        22.3172   10.9004    1.8795 H           1 MOL       0.0611
     50 H19        21.0773    9.7170    2.2629 H           1 MOL       0.0611
     51 H20        20.9315   10.7414   -0.5516 H           1 MOL       0.0648
     52 H21        20.5378   12.6579    1.7904 H           1 MOL       0.0648
     53 H22        22.4453   12.8234    0.6506 H           1 MOL       0.2100
     54 H23        18.7416   13.6456    0.6191 H           1 MOL       0.0676
     55 H24        17.9300   11.2005   -0.6726 H           1 MOL       0.0996
     56 H25        12.4640   11.7511    3.7046 H           1 MOL       0.1820
     57 H26        13.9564   12.0105    4.4230 H           1 MOL       0.1820
@<TRIPOS>BOND
     1     1     3   1
     2     9     1  am
     3     1    10   2
     4     2     8  ar
     5    13     2  ar
     6     3     7   1
     7     3    17   1
     8     4     5  ar
     9     4    13  ar
    10    29     4   1
    11     5     6  ar
    12    30     5   1
    13     6     8  ar
    14     6    31   1
    15     7    14   1
    16     7    15   1
    17     7    16   1
    18    18     9  am
    19    29    11   1
    20    11    30   2
    21    26    12   1
    22    18    19   2
    23    18    20   2
    24    21    18   1
    25    22    21   1
    26    23    22   1
    27    23    24   1
    28    28    23   1
    29    24    25   1
    30    26    24   1
    31    27    26   1
    32    27    28   1
    33    27    29   1
    34     2    32   1
    35     3    33   1
    36     9    34   1
    37    11    35   1
    38    12    36   1
    39    14    37   1
    40    14    38   1
    41    14    39   1
    42    15    40   1
    43    15    41   1
    44    15    42   1
    45    16    43   1
    46    16    44   1
    47    16    45   1
    48    17    46   1
    49    17    47   1
    50    17    48   1
    51    22    49   1
    52    22    50   1
    53    23    51   1
    54    24    52   1
    55    25    53   1
    56    26    54   1
    57    27    55   1
    58    31    56   1
    59    31    57   1
@<TRIPOS>SUBSTRUCTURE
     1  MOL      1

