@<TRIPOS>MOLECULE
3coy_ligand_065
    57    59
SMALL
GAST_HUCK
****
This file was generated by PARSER (from files_GN.cpp)

@<TRIPOS>ATOM
      1 C1         16.3052    9.7928    5.3112 C.2         1 MOL       0.2465
      2 C2         12.7583    7.4084   -4.8025 C.ar        1 MOL       0.0533
      3 C3         16.1185    9.3115    6.6839 C.3         1 MOL       0.0714
      4 C4         13.4884    9.2181   -3.4756 C.ar        1 MOL       0.1613
      5 C5         12.3121    9.9037   -3.7616 C.ar        1 MOL       0.1045
      6 C6         11.3699    9.3304   -4.6305 C.ar        1 MOL       0.1298
      7 C7         14.6161    9.1563    7.1693 C.3         1 MOL       0.0226
      8 N1         11.6167    8.0848   -5.1085 N.ar        1 MOL      -0.2698
      9 N2         16.8988   10.9676    5.1141 N.am        1 MOL      -0.1294
     10 O1         15.9342    9.1036    4.3714 O.2         1 MOL      -0.3891
     11 C8         13.4753   11.1137   -2.4291 C.2         1 MOL       0.1123
     12 O2         17.8357   10.2415   -2.7092 O.3         1 MOL      -0.3836
     13 N3         13.6861    7.9700   -3.9857 N.ar        1 MOL      -0.2714
     14 C9         13.8526    8.0106    6.4242 C.3         1 MOL      -0.0527
     15 C10        14.5967    8.8295    8.7026 C.3         1 MOL      -0.0527
     16 C11        13.8354   10.4986    6.9594 C.3         1 MOL      -0.0527
     17 N4         16.9157    8.0788    6.8296 N.4         1 MOL       0.2383
     18 S1         17.1688   11.7641    3.6532 S.o2        1 MOL       0.1859
     19 O1A        18.7714   12.2986    3.6737 O.2         1 MOL      -0.1218
     20 O2A        16.1483   13.1132    3.6314 O.2         1 MOL      -0.1218
     21 O5         16.9271   10.7455    2.3240 O.3         1 MOL      -0.2161
     22 C25        15.8593   10.8499    1.3791 C.3         1 MOL       0.1073
     23 C24        16.3477   10.4003   -0.0265 C.3         1 MOL       0.1161
     24 C23        16.6756   11.5416   -1.0112 C.3         1 MOL       0.1146
     25 O3         17.9465   12.1526   -0.7677 O.3         1 MOL      -0.3864
     26 C22        16.5734   10.8196   -2.3652 C.3         1 MOL       0.1385
     27 C21        15.5047    9.7297   -2.0872 C.3         1 MOL       0.2010
     28 O4         15.3217    9.6393   -0.6699 O.3         1 MOL      -0.3367
     29 N9         14.2133   10.0038   -2.6578 N.pl3       1 MOL      -0.1919
     30 N7         12.3194   11.0656   -3.1091 N.2         1 MOL      -0.2958
     31 N6         10.2641   10.0040   -4.9770 N.pl3       1 MOL      -0.3152
     32 H1         12.9095    6.4766   -5.1888 H           1 MOL       0.0996
     33 H2         16.5961   10.0261    7.3659 H           1 MOL       0.1104
     34 H3         17.1667   11.4502    5.9077 H           1 MOL       0.2167
     35 H4         13.7362   11.8952   -1.8308 H           1 MOL       0.1349
     36 H5         17.9712   10.4443   -3.6563 H           1 MOL       0.2101
     37 H6         12.8420    7.9011    6.8219 H           1 MOL       0.0238
     38 H7         14.3630    7.0542    6.5473 H           1 MOL       0.0238
     39 H8         13.7643    8.2165    5.3574 H           1 MOL       0.0238
     40 H9         15.1155    9.6033    9.2722 H           1 MOL       0.0238
     41 H10        15.0807    7.8740    8.9092 H           1 MOL       0.0238
     42 H11        13.5737    8.7697    9.0780 H           1 MOL       0.0238
     43 H12        13.7533   10.7440    5.8984 H           1 MOL       0.0238
     44 H13        14.3445   11.3257    7.4586 H           1 MOL       0.0238
     45 H14        12.8234   10.4288    7.3606 H           1 MOL       0.0238
     46 H15        17.8796    8.2593    6.5385 H           1 MOL       0.2015
     47 H16        16.5256    7.3396    6.2474 H           1 MOL       0.2015
     48 H17        16.9197    7.7778    7.8052 H           1 MOL       0.2015
     49 H18        15.4496   11.8625    1.3501 H           1 MOL       0.0611
     50 H19        15.0632   10.1853    1.7262 H           1 MOL       0.0611
     51 H20        17.2264    9.7540    0.0850 H           1 MOL       0.0648
     52 H21        15.9121   12.3249   -0.9564 H           1 MOL       0.0648
     53 H22        17.9979   12.8924   -1.4166 H           1 MOL       0.2100
     54 H23        16.2735   11.5120   -3.1561 H           1 MOL       0.0676
     55 H24        15.8715    8.7611   -2.4326 H           1 MOL       0.0996
     56 H25         9.6319    9.6173   -5.5981 H           1 MOL       0.1820
     57 H26        10.1427   10.9056   -4.6443 H           1 MOL       0.1820
@<TRIPOS>BOND
     1     1     3   1
     2     9     1  am
     3     1    10   2
     4     2     8  ar
     5    13     2  ar
     6     3     7   1
     7     3    17   1
     8     4     5  ar
     9     4    13  ar
    10    29     4   1
    11     5     6  ar
    12    30     5   1
    13     6     8  ar
    14     6    31   1
    15     7    14   1
    16     7    15   1
    17     7    16   1
    18    18     9  am
    19    29    11   1
    20    11    30   2
    21    26    12   1
    22    18    19   2
    23    18    20   2
    24    21    18   1
    25    22    21   1
    26    23    22   1
    27    23    24   1
    28    28    23   1
    29    24    25   1
    30    26    24   1
    31    27    26   1
    32    27    28   1
    33    27    29   1
    34     2    32   1
    35     3    33   1
    36     9    34   1
    37    11    35   1
    38    12    36   1
    39    14    37   1
    40    14    38   1
    41    14    39   1
    42    15    40   1
    43    15    41   1
    44    15    42   1
    45    16    43   1
    46    16    44   1
    47    16    45   1
    48    17    46   1
    49    17    47   1
    50    17    48   1
    51    22    49   1
    52    22    50   1
    53    23    51   1
    54    24    52   1
    55    25    53   1
    56    26    54   1
    57    27    55   1
    58    31    56   1
    59    31    57   1
@<TRIPOS>SUBSTRUCTURE
     1  MOL      1

