@<TRIPOS>MOLECULE
3coy_ligand_025
    57    59
SMALL
GAST_HUCK
****
This file was generated by PARSER (from files_GN.cpp)

@<TRIPOS>ATOM
      1 C1         15.9625    9.8874    4.8583 C.2         1 MOL       0.2465
      2 C2         24.6312    9.6179    4.1381 C.ar        1 MOL       0.0533
      3 C3         16.0570    9.5687    6.2841 C.3         1 MOL       0.0714
      4 C4         22.4332    9.9399    3.3567 C.ar        1 MOL       0.1613
      5 C5         22.0421    8.7202    3.9036 C.ar        1 MOL       0.1045
      6 C6         22.9942    7.9455    4.5904 C.ar        1 MOL       0.1298
      7 C7         14.6654    9.3380    7.0079 C.3         1 MOL       0.0226
      8 N1         24.2667    8.4254    4.6842 N.ar        1 MOL      -0.2698
      9 N2         16.1106   11.1440    4.4685 N.am        1 MOL      -0.1294
     10 O1         15.7432    8.9901    4.0518 O.2         1 MOL      -0.3891
     11 C8         20.3462    9.6070    2.9242 C.2         1 MOL       0.1123
     12 O2         22.2850   12.5534   -0.0589 O.3         1 MOL      -0.3836
     13 N3         23.7140   10.3734    3.4741 N.ar        1 MOL      -0.2714
     14 C9         13.8370    8.1694    6.3765 C.3         1 MOL      -0.0527
     15 C10        14.8986    8.9993    8.5191 C.3         1 MOL      -0.0527
     16 C11        13.8086   10.6498    6.9396 C.3         1 MOL      -0.0527
     17 N4         17.0257    8.4654    6.4589 N.4         1 MOL       0.2383
     18 S1         15.9585   11.7341    2.8960 S.o2        1 MOL       0.1859
     19 O1A        15.3231   13.3033    2.9262 O.2         1 MOL      -0.1218
     20 O2A        14.9717   10.7287    1.9553 O.2         1 MOL      -0.1218
     21 O5         17.4993   11.7518    2.1816 O.3         1 MOL      -0.2161
     22 C25        17.9288   12.7479    1.2464 C.3         1 MOL       0.1073
     23 C24        19.4600   12.7166    1.0319 C.3         1 MOL       0.1161
     24 C23        19.9854   11.6785    0.0313 C.3         1 MOL       0.1146
     25 O3         19.8551   12.1593   -1.3056 O.3         1 MOL      -0.3864
     26 C22        21.4446   11.5286    0.4931 C.3         1 MOL       0.1385
     27 C21        21.3404   11.7224    2.0268 C.3         1 MOL       0.2010
     28 O4         20.1325   12.4682    2.2753 O.3         1 MOL      -0.3367
     29 N9         21.3620   10.4819    2.7509 N.pl3       1 MOL      -0.1919
     30 N7         20.7432    8.5293    3.6278 N.2         1 MOL      -0.2958
     31 N6         22.6803    6.7645    5.1465 N.pl3       1 MOL      -0.3152
     32 H1         25.5949    9.9439    4.2247 H           1 MOL       0.0996
     33 H2         16.5377   10.4141    6.7928 H           1 MOL       0.1104
     34 H3         16.2792   11.8041    5.1543 H           1 MOL       0.2167
     35 H4         19.3948    9.7265    2.5701 H           1 MOL       0.1349
     36 H5         21.8952   13.3942    0.2343 H           1 MOL       0.2101
     37 H6         12.9288    7.9829    6.9548 H           1 MOL       0.0238
     38 H7         14.4196    7.2470    6.3552 H           1 MOL       0.0238
     39 H8         13.5292    8.4056    5.3561 H           1 MOL       0.0238
     40 H9         15.4905    9.7779    9.0053 H           1 MOL       0.0238
     41 H10        15.4255    8.0485    8.6289 H           1 MOL       0.0238
     42 H11        13.9485    8.9142    9.0523 H           1 MOL       0.0238
     43 H12        13.5772   10.9169    5.9061 H           1 MOL       0.0238
     44 H13        14.3441   11.4879    7.3930 H           1 MOL       0.0238
     45 H14        12.8610   10.5277    7.4696 H           1 MOL       0.0238
     46 H15        17.8461    8.6411    5.8754 H           1 MOL       0.2015
     47 H16        16.6036    7.5737    6.1858 H           1 MOL       0.2015
     48 H17        17.3374    8.4244    7.4331 H           1 MOL       0.2015
     49 H18        17.6679   13.7272    1.6499 H           1 MOL       0.0611
     50 H19        17.4033   12.6220    0.3003 H           1 MOL       0.0611
     51 H20        19.7658   13.7116    0.6848 H           1 MOL       0.0648
     52 H21        19.4492   10.7351    0.1402 H           1 MOL       0.0648
     53 H22        19.8780   11.3511   -1.8756 H           1 MOL       0.2100
     54 H23        21.8560   10.5540    0.2171 H           1 MOL       0.0676
     55 H24        22.1683   12.3519    2.3783 H           1 MOL       0.0996
     56 H25        23.3583    6.2559    5.6169 H           1 MOL       0.1820
     57 H26        21.7750    6.4212    5.0833 H           1 MOL       0.1820
@<TRIPOS>BOND
     1     1     3   1
     2     9     1  am
     3     1    10   2
     4     2     8  ar
     5    13     2  ar
     6     3     7   1
     7     3    17   1
     8     4     5  ar
     9     4    13  ar
    10    29     4   1
    11     5     6  ar
    12    30     5   1
    13     6     8  ar
    14     6    31   1
    15     7    14   1
    16     7    15   1
    17     7    16   1
    18    18     9  am
    19    29    11   1
    20    11    30   2
    21    26    12   1
    22    18    19   2
    23    18    20   2
    24    21    18   1
    25    22    21   1
    26    23    22   1
    27    23    24   1
    28    28    23   1
    29    24    25   1
    30    26    24   1
    31    27    26   1
    32    27    28   1
    33    27    29   1
    34     2    32   1
    35     3    33   1
    36     9    34   1
    37    11    35   1
    38    12    36   1
    39    14    37   1
    40    14    38   1
    41    14    39   1
    42    15    40   1
    43    15    41   1
    44    15    42   1
    45    16    43   1
    46    16    44   1
    47    16    45   1
    48    17    46   1
    49    17    47   1
    50    17    48   1
    51    22    49   1
    52    22    50   1
    53    23    51   1
    54    24    52   1
    55    25    53   1
    56    26    54   1
    57    27    55   1
    58    31    56   1
    59    31    57   1
@<TRIPOS>SUBSTRUCTURE
     1  MOL      1

