@<TRIPOS>MOLECULE
3coy_ligand_047
    57    59
SMALL
GAST_HUCK
****
This file was generated by PARSER (from files_GN.cpp)

@<TRIPOS>ATOM
      1 C1         14.4693    9.7420    0.7230 C.2         1 MOL       0.2465
      2 C2         19.8519   12.6178    0.5016 C.ar        1 MOL       0.0533
      3 C3         13.9631    9.2227   -0.5576 C.3         1 MOL       0.0714
      4 C4         20.3036   10.3440    0.9807 C.ar        1 MOL       0.1613
      5 C5         20.0885   10.0234   -0.3626 C.ar        1 MOL       0.1045
      6 C6         19.6882   11.0282   -1.2594 C.ar        1 MOL       0.1298
      7 C7         14.4282   10.0284   -1.8363 C.3         1 MOL       0.0226
      8 N1         19.6044   12.3029   -0.7979 N.ar        1 MOL      -0.2698
      9 N2         15.7082    9.4677    1.1207 N.am        1 MOL      -0.1294
     10 O1         13.7183   10.4018    1.4339 O.2         1 MOL      -0.3891
     11 C8         20.6546    8.2372    0.6792 C.2         1 MOL       0.1123
     12 O2         21.3574   10.8904    4.5066 O.3         1 MOL      -0.3836
     13 N3         20.1876   11.6405    1.3895 N.ar        1 MOL      -0.2714
     14 C9         13.7228    9.4549   -3.1095 C.3         1 MOL      -0.0527
     15 C10        14.0219   11.5368   -1.7279 C.3         1 MOL      -0.0527
     16 C11        15.9757    9.9489   -2.0404 C.3         1 MOL      -0.0527
     17 N4         14.2729    7.7766   -0.6326 N.4         1 MOL       0.2383
     18 S1         16.3614    9.8038    2.6351 S.o2        1 MOL       0.1859
     19 O1A        15.2170    9.5665    3.8541 O.2         1 MOL      -0.1218
     20 O2A        16.8233   11.4302    2.6262 O.2         1 MOL      -0.1218
     21 O5         17.7351    8.8375    2.8203 O.3         1 MOL      -0.2161
     22 C25        17.9136    7.8192    3.8080 C.3         1 MOL       0.1073
     23 C24        19.3225    7.8625    4.4600 C.3         1 MOL       0.1161
     24 C23        19.6922    9.1693    5.1858 C.3         1 MOL       0.1146
     25 O3         20.6164    8.9296    6.2534 O.3         1 MOL      -0.3864
     26 C22        20.3350    9.9970    4.0608 C.3         1 MOL       0.1385
     27 C21        20.8673    8.9541    3.0394 C.3         1 MOL       0.2010
     28 O4         20.3238    7.6832    3.4492 O.3         1 MOL      -0.3367
     29 N9         20.6079    9.1974    1.6322 N.pl3       1 MOL      -0.1919
     30 N7         20.3226    8.7164   -0.5322 N.2         1 MOL      -0.2958
     31 N6         19.3925   10.7356   -2.5356 N.pl3       1 MOL      -0.3152
     32 H1         19.7790   13.5847    0.8073 H           1 MOL       0.0996
     33 H2         12.8736    9.2704   -0.5212 H           1 MOL       0.1104
     34 H3         16.2527    8.9360    0.5285 H           1 MOL       0.2167
     35 H4         20.8947    7.2619    0.8479 H           1 MOL       0.1349
     36 H5         22.0347   10.3329    4.9341 H           1 MOL       0.2101
     37 H6         13.9722   10.0435   -3.9969 H           1 MOL       0.0238
     38 H7         12.6351    9.4706   -2.9933 H           1 MOL       0.0238
     39 H8         14.0274    8.4248   -3.3052 H           1 MOL       0.0238
     40 H9         14.5281   12.0194   -0.8902 H           1 MOL       0.0238
     41 H10        12.9436   11.6441   -1.5844 H           1 MOL       0.0238
     42 H11        14.2968   12.0814   -2.6366 H           1 MOL       0.0238
     43 H12        16.3113    8.9125   -2.0931 H           1 MOL       0.0238
     44 H13        16.5052   10.4375   -1.2208 H           1 MOL       0.0238
     45 H14        16.2731   10.4471   -2.9676 H           1 MOL       0.0238
     46 H15        13.8684    7.2893    0.1723 H           1 MOL       0.2015
     47 H16        15.2854    7.6255   -0.6314 H           1 MOL       0.2015
     48 H17        13.8824    7.3798   -1.4843 H           1 MOL       0.2015
     49 H18        17.7985    6.8540    3.2913 H           1 MOL       0.0611
     50 H19        17.1474    7.8744    4.5831 H           1 MOL       0.0611
     51 H20        19.3864    7.0217    5.1563 H           1 MOL       0.0648
     52 H21        18.8064    9.6728    5.5920 H           1 MOL       0.0648
     53 H22        20.0562    8.8011    7.0645 H           1 MOL       0.2100
     54 H23        19.5399   10.6059    3.6273 H           1 MOL       0.0676
     55 H24        21.9469    8.8544    3.1530 H           1 MOL       0.0996
     56 H25        19.0691   11.4168   -3.1420 H           1 MOL       0.1820
     57 H26        19.4602    9.8214   -2.8366 H           1 MOL       0.1820
@<TRIPOS>BOND
     1     1     3   1
     2     9     1  am
     3     1    10   2
     4     2     8  ar
     5    13     2  ar
     6     3     7   1
     7     3    17   1
     8     4     5  ar
     9     4    13  ar
    10    29     4   1
    11     5     6  ar
    12    30     5   1
    13     6     8  ar
    14     6    31   1
    15     7    14   1
    16     7    15   1
    17     7    16   1
    18    18     9  am
    19    29    11   1
    20    11    30   2
    21    26    12   1
    22    18    19   2
    23    18    20   2
    24    21    18   1
    25    22    21   1
    26    23    22   1
    27    23    24   1
    28    28    23   1
    29    24    25   1
    30    26    24   1
    31    27    26   1
    32    27    28   1
    33    27    29   1
    34     2    32   1
    35     3    33   1
    36     9    34   1
    37    11    35   1
    38    12    36   1
    39    14    37   1
    40    14    38   1
    41    14    39   1
    42    15    40   1
    43    15    41   1
    44    15    42   1
    45    16    43   1
    46    16    44   1
    47    16    45   1
    48    17    46   1
    49    17    47   1
    50    17    48   1
    51    22    49   1
    52    22    50   1
    53    23    51   1
    54    24    52   1
    55    25    53   1
    56    26    54   1
    57    27    55   1
    58    31    56   1
    59    31    57   1
@<TRIPOS>SUBSTRUCTURE
     1  MOL      1

