@<TRIPOS>MOLECULE
3cyx_ligand_091
   100   104
SMALL
GAST_HUCK
****
This file was generated by PARSER (from files_GN.cpp)

@<TRIPOS>ATOM
      1 O1         16.3059   25.0149   18.1340 O.2         1 ROC      -0.3762
      2 C1         16.7598   23.9234   18.4157 C.2         1 ROC       0.2293
      3 N1         18.3287   22.7204   19.7218 N.ar        1 ROC      -0.2737
      4 C2         18.0120   23.8325   19.0109 C.ar        1 ROC       0.1219
      5 C3         18.9772   24.8691   18.9355 C.ar        1 ROC      -0.0136
      6 C4         20.2106   24.7221   19.6036 C.ar        1 ROC      -0.0314
      7 C5         20.4752   23.5673   20.3639 C.ar        1 ROC       0.0097
      8 C6         21.6613   23.4089   21.1169 C.ar        1 ROC      -0.0444
      9 C7         21.8555   22.2512   21.8956 C.ar        1 ROC      -0.0546
     10 C8         20.8845   21.2340   21.9026 C.ar        1 ROC      -0.0545
     11 C9R        19.7129   21.3695   21.1427 C.ar        1 ROC      -0.0370
     12 C10        19.4954   22.5395   20.3920 C.ar        1 ROC       0.0527
     13 N2         16.0849   22.8062   18.1581 N.am        1 ROC      -0.2600
     14 C11        14.7383   22.6718   17.6868 C.3         1 ROC       0.1473
     15 C12        14.4695   21.2375   17.5851 C.2         1 ROC       0.2045
     16 O2         14.9091   20.6418   16.6093 O.2         1 ROC      -0.3943
     17 C13        14.3926   23.4619   16.3701 C.3         1 ROC       0.0773
     18 C14        15.4298   23.5353   15.3480 C.2         1 ROC       0.1780
     19 O3         15.9483   22.5275   14.9016 O.2         1 ROC      -0.3970
     20 N3         15.7810   24.6780   14.7948 N.am        1 ROC      -0.3007
     21 C15        11.8152   19.1645   18.6839 C.3         1 ROC       0.1194
     22 O4         11.4590   19.2057   20.0658 O.3         1 ROC      -0.3840
     23 C16        13.3676   19.1959   18.4451 C.3         1 ROC       0.0823
     24 N4         13.8372   20.5616   18.5425 N.am        1 ROC      -0.2772
     25 C17        14.2573   18.2051   19.2732 C.3         1 ROC       0.0066
     26 C18        13.8947   17.9847   20.6968 C.ar        1 ROC      -0.0408
     27 C19        13.1947   16.8120   21.0813 C.ar        1 ROC      -0.0603
     28 C20        14.1798   18.9535   21.6873 C.ar        1 ROC      -0.0603
     29 C21        12.7880   16.6176   22.4131 C.ar        1 ROC      -0.0686
     30 C22        13.7650   18.7625   23.0209 C.ar        1 ROC      -0.0686
     31 C23        13.0642   17.5970   23.3803 C.ar        1 ROC      -0.0687
     32 N5         11.2006   17.7564   16.5153 N.4         1 ROC       0.2562
     33 C24        11.0651   17.9707   18.0109 C.3         1 ROC      -0.0008
     34 C25        10.2886   16.6585   15.9820 C.3         1 ROC       0.0688
     35 C26        10.4641   15.3307   16.5894 C.2         1 ROC       0.2251
     36 O5         11.5294   15.0398   17.1107 O.2         1 ROC      -0.3909
     37 C27        10.4124   16.4851   14.4294 C.3         1 ROC       0.0113
     38 C28        10.2143   17.8216   13.6561 C.3         1 ROC      -0.0261
     39 C29        10.3629   17.6807   12.1085 C.3         1 ROC      -0.0494
     40 C30        11.8307   17.4977   11.6358 C.3         1 ROC      -0.0528
     41 C31        12.7728   18.5834   12.2210 C.3         1 ROC      -0.0526
     42 C32        12.6452   18.7087   13.7618 C.3         1 ROC      -0.0451
     43 C33        11.1642   18.9246   14.2058 C.3         1 ROC       0.0024
     44 C34        11.0032   19.0407   15.7482 C.3         1 ROC      -0.0266
     45 N6          9.5162   14.4083   16.4209 N.am        1 ROC      -0.2771
     46 C35         9.5125   13.0075   16.7845 C.3         1 ROC       0.0448
     47 C36         9.6036   12.8215   18.3303 C.3         1 ROC      -0.0396
     48 C37        10.6630   12.2244   16.0749 C.3         1 ROC      -0.0396
     49 C38         8.1493   12.4318   16.2847 C.3         1 ROC      -0.0396
     50 H1         18.7957   25.7203   18.3986 H           1 ROC       0.0729
     51 H2         20.9004   25.4761   19.5405 H           1 ROC       0.0774
     52 H3         22.3752   24.1418   21.1250 H           1 ROC       0.0657
     53 H4         22.6979   22.1537   22.4629 H           1 ROC       0.0652
     54 H5         21.0235   20.4001   22.4737 H           1 ROC       0.0657
     55 H6         19.0062   20.6296   21.1619 H           1 ROC       0.0653
     56 H7         16.5582   21.9822   18.3474 H           1 ROC       0.1882
     57 H8         14.0935   23.0738   18.4794 H           1 ROC       0.0826
     58 H9         14.0955   24.4739   16.6542 H           1 ROC       0.0551
     59 H10        13.5092   23.0154   15.9030 H           1 ROC       0.0551
     60 H11        16.4204   24.6840   14.0630 H           1 ROC       0.1814
     61 H12        15.3725   25.5095   15.0835 H           1 ROC       0.1814
     62 H13        11.3857   20.0823   18.2780 H           1 ROC       0.0672
     63 H14        11.9648   19.9532   20.4434 H           1 ROC       0.2101
     64 H15        13.5055   18.8674   17.4086 H           1 ROC       0.0606
     65 H16        13.6066   21.0442   19.3531 H           1 ROC       0.1857
     66 H17        15.2978   18.5418   19.2365 H           1 ROC       0.0449
     67 H18        14.2466   17.2419   18.7547 H           1 ROC       0.0449
     68 H19        12.9648   16.0938   20.3922 H           1 ROC       0.0557
     69 H20        14.6916   19.8049   21.4445 H           1 ROC       0.0557
     70 H21        12.2816   15.7665   22.6747 H           1 ROC       0.0599
     71 H22        13.9697   19.4740   23.7295 H           1 ROC       0.0599
     72 H23        12.7602   17.4601   24.3493 H           1 ROC       0.0559
     73 H24        12.1638   17.4536   16.3397 H           1 ROC       0.2057
     74 H25        10.0044   18.0843   18.2531 H           1 ROC       0.0841
     75 H26        11.4101   17.0738   18.5272 H           1 ROC       0.0841
     76 H27         9.2573   16.9706   16.1900 H           1 ROC       0.1100
     77 H28         9.6544   15.7775   14.0756 H           1 ROC       0.0348
     78 H29        11.3914   16.0605   14.1931 H           1 ROC       0.0348
     79 H30         9.1827   18.1426   13.8387 H           1 ROC       0.0309
     80 H31         9.9640   18.5825   11.6362 H           1 ROC       0.0268
     81 H32         9.7647   16.8382   11.7510 H           1 ROC       0.0268
     82 H33        11.8630   17.5523   10.5430 H           1 ROC       0.0265
     83 H34        12.1915   16.5084   11.9259 H           1 ROC       0.0265
     84 H35        12.5389   19.5467   11.7596 H           1 ROC       0.0265
     85 H36        13.8071   18.3349   11.9651 H           1 ROC       0.0265
     86 H37        13.2509   19.5565   14.0920 H           1 ROC       0.0270
     87 H38        13.0533   17.8112   14.2286 H           1 ROC       0.0270
     88 H39        10.8421   19.8819   13.7807 H           1 ROC       0.0355
     89 H40        11.7222   19.7964   16.0650 H           1 ROC       0.0818
     90 H41        10.0057   19.4390   15.9642 H           1 ROC       0.0818
     91 H42         8.7195   14.7207   15.9621 H           1 ROC       0.1859
     92 H43         9.4939   11.7690   18.5988 H           1 ROC       0.0254
     93 H44         8.8176   13.3888   18.8321 H           1 ROC       0.0254
     94 H45        10.5678   13.1650   18.7073 H           1 ROC       0.0254
     95 H46        10.5702   11.1513   16.2576 H           1 ROC       0.0254
     96 H47        11.6419   12.5396   16.4403 H           1 ROC       0.0254
     97 H48        10.6317   12.3922   14.9951 H           1 ROC       0.0254
     98 H49         8.0558   11.3713   16.5285 H           1 ROC       0.0254
     99 H50         8.0606   12.5399   15.1998 H           1 ROC       0.0254
    100 H51         7.3124   12.9627   16.7463 H           1 ROC       0.0254
@<TRIPOS>BOND
     1     2     1   2
     2     2     4   1
     3    13     2  am
     4     4     3  ar
     5     3    12  ar
     6     4     5  ar
     7     5     6  ar
     8     6     7  ar
     9     7     8  ar
    10    12     7  ar
    11     8     9  ar
    12    10     9  ar
    13    11    10  ar
    14    12    11  ar
    15    14    13   1
    16    15    14   1
    17    14    17   1
    18    15    16   2
    19    24    15  am
    20    17    18   1
    21    18    19   2
    22    18    20  am
    23    21    22   1
    24    23    21   1
    25    21    33   1
    26    23    24   1
    27    23    25   1
    28    25    26   1
    29    26    27  ar
    30    26    28  ar
    31    27    29  ar
    32    28    30  ar
    33    29    31  ar
    34    30    31  ar
    35    33    32   1
    36    32    34   1
    37    32    44   1
    38    34    35   1
    39    34    37   1
    40    35    36   2
    41    35    45  am
    42    37    38   1
    43    38    39   1
    44    38    43   1
    45    39    40   1
    46    40    41   1
    47    41    42   1
    48    42    43   1
    49    43    44   1
    50    45    46   1
    51    46    47   1
    52    46    48   1
    53    46    49   1
    54     5    50   1
    55     6    51   1
    56     8    52   1
    57     9    53   1
    58    10    54   1
    59    11    55   1
    60    13    56   1
    61    14    57   1
    62    17    58   1
    63    17    59   1
    64    20    60   1
    65    20    61   1
    66    21    62   1
    67    22    63   1
    68    23    64   1
    69    24    65   1
    70    25    66   1
    71    25    67   1
    72    27    68   1
    73    28    69   1
    74    29    70   1
    75    30    71   1
    76    31    72   1
    77    32    73   1
    78    33    74   1
    79    33    75   1
    80    34    76   1
    81    37    77   1
    82    37    78   1
    83    38    79   1
    84    39    80   1
    85    39    81   1
    86    40    82   1
    87    40    83   1
    88    41    84   1
    89    41    85   1
    90    42    86   1
    91    42    87   1
    92    43    88   1
    93    44    89   1
    94    44    90   1
    95    45    91   1
    96    47    92   1
    97    47    93   1
    98    47    94   1
    99    48    95   1
   100    48    96   1
   101    48    97   1
   102    49    98   1
   103    49    99   1
   104    49   100   1
@<TRIPOS>SUBSTRUCTURE
     1  ROC      2

