@<TRIPOS>MOLECULE
3cyx_ligand_090
   100   104
SMALL
GAST_HUCK
****
This file was generated by PARSER (from files_GN.cpp)

@<TRIPOS>ATOM
      1 O1         16.5270   25.5253   15.0730 O.2         1 ROC      -0.3762
      2 C1         16.3396   24.3582   15.3892 C.2         1 ROC       0.2293
      3 N1         15.5209   22.1792   14.8882 N.ar        1 ROC      -0.2737
      4 C2         15.8137   23.4441   14.4727 C.ar        1 ROC       0.1219
      5 C3         15.5492   23.7690   13.1189 C.ar        1 ROC      -0.0136
      6 C4         14.9989   22.8010   12.2633 C.ar        1 ROC      -0.0314
      7 C5         14.7164   21.5016   12.7366 C.ar        1 ROC       0.0097
      8 C6         14.1649   20.4928   11.9136 C.ar        1 ROC      -0.0444
      9 C7         13.9035   19.2173   12.4402 C.ar        1 ROC      -0.0546
     10 C8         14.1832   18.9364   13.7890 C.ar        1 ROC      -0.0545
     11 C9R        14.7266   19.9351   14.6225 C.ar        1 ROC      -0.0370
     12 C10        14.9959   21.2146   14.0994 C.ar        1 ROC       0.0527
     13 N2         16.6315   23.9504   16.6117 N.am        1 ROC      -0.2600
     14 C11        17.1225   24.7403   17.7196 C.3         1 ROC       0.1473
     15 C12        18.5811   24.6538   17.8411 C.2         1 ROC       0.2045
     16 O2         19.2142   23.9969   17.0298 O.2         1 ROC      -0.3943
     17 C13        16.3843   24.2543   19.0085 C.3         1 ROC       0.0773
     18 C14        15.0468   23.7325   18.7835 C.2         1 ROC       0.1780
     19 O3         14.8449   22.5195   18.8026 O.2         1 ROC      -0.3970
     20 N3         13.9998   24.5063   18.5494 N.am        1 ROC      -0.3007
     21 C15        21.2789   26.4982   18.2408 C.3         1 ROC       0.1194
     22 O4         21.3526   26.0843   16.8723 O.3         1 ROC      -0.3840
     23 C16        20.6270   25.3574   19.0941 C.3         1 ROC       0.0823
     24 N4         19.2103   25.2763   18.8321 N.am        1 ROC      -0.2772
     25 C17        21.4304   24.0137   18.9899 C.3         1 ROC       0.0066
     26 C18        21.0310   22.9792   19.9740 C.ar        1 ROC      -0.0408
     27 C19        21.8323   22.7122   21.1108 C.ar        1 ROC      -0.0603
     28 C20        19.8606   22.2083   19.7779 C.ar        1 ROC      -0.0603
     29 C21        21.4532   21.7186   22.0307 C.ar        1 ROC      -0.0686
     30 C22        19.4703   21.2305   20.7128 C.ar        1 ROC      -0.0686
     31 C23        20.2676   20.9926   21.8458 C.ar        1 ROC      -0.0687
     32 N5         23.8108   27.0793   17.7954 N.4         1 ROC       0.2562
     33 C24        22.6574   27.0312   18.7759 C.3         1 ROC      -0.0008
     34 C25        23.6875   28.1337   16.7078 C.3         1 ROC       0.0688
     35 C26        22.4605   28.0683   15.9036 C.2         1 ROC       0.2251
     36 O5         21.7107   29.0324   15.8682 O.2         1 ROC      -0.3909
     37 C27        24.9236   28.1014   15.7516 C.3         1 ROC       0.0113
     38 C28        26.2752   28.2196   16.5095 C.3         1 ROC      -0.0261
     39 C29        27.5164   28.1596   15.5692 C.3         1 ROC      -0.0494
     40 C30        27.8292   26.7374   15.0338 C.3         1 ROC      -0.0528
     41 C31        27.9402   25.7088   16.1863 C.3         1 ROC      -0.0526
     42 C32        26.6880   25.7261   17.1034 C.3         1 ROC      -0.0451
     43 C33        26.3860   27.1595   17.6435 C.3         1 ROC       0.0024
     44 C34        25.1176   27.1996   18.5430 C.3         1 ROC      -0.0266
     45 N6         22.2254   26.9941   15.1665 N.am        1 ROC      -0.2771
     46 C35        21.1682   26.7097   14.2282 C.3         1 ROC       0.0448
     47 C36        21.2771   25.1888   13.8961 C.3         1 ROC      -0.0396
     48 C37        21.3799   27.5276   12.9195 C.3         1 ROC      -0.0396
     49 C38        19.7516   26.9707   14.8352 C.3         1 ROC      -0.0396
     50 H1         15.7505   24.7013   12.7501 H           1 ROC       0.0729
     51 H2         14.8022   23.0479   11.2874 H           1 ROC       0.0774
     52 H3         13.9529   20.6804   10.9328 H           1 ROC       0.0657
     53 H4         13.4989   18.4881   11.8452 H           1 ROC       0.0652
     54 H5         13.9891   18.0049   14.1670 H           1 ROC       0.0657
     55 H6         14.9190   19.7264   15.6021 H           1 ROC       0.0653
     56 H7         16.5043   23.0042   16.7993 H           1 ROC       0.1882
     57 H8         16.8666   25.7929   17.5793 H           1 ROC       0.0826
     58 H9         16.2850   25.0884   19.7145 H           1 ROC       0.0551
     59 H10        16.9870   23.4811   19.5091 H           1 ROC       0.0551
     60 H11        13.1295   24.1031   18.4000 H           1 ROC       0.1814
     61 H12        14.0772   25.4781   18.5510 H           1 ROC       0.1814
     62 H13        20.5967   27.3524   18.2440 H           1 ROC       0.0672
     63 H14        21.8846   25.2582   16.8659 H           1 ROC       0.2101
     64 H15        20.6850   25.6752   20.1363 H           1 ROC       0.0606
     65 H16        18.6504   25.7833   19.4384 H           1 ROC       0.1857
     66 H17        22.4943   24.2293   19.1093 H           1 ROC       0.0449
     67 H18        21.3346   23.5883   17.9915 H           1 ROC       0.0449
     68 H19        22.7008   23.2253   21.2722 H           1 ROC       0.0557
     69 H20        19.2949   22.3285   18.9424 H           1 ROC       0.0557
     70 H21        22.0479   21.5229   22.8379 H           1 ROC       0.0599
     71 H22        18.6123   20.6948   20.5631 H           1 ROC       0.0599
     72 H23        19.9850   20.2808   22.5265 H           1 ROC       0.0559
     73 H24        23.8271   26.1701   17.3300 H           1 ROC       0.2057
     74 H25        22.9280   26.4009   19.6259 H           1 ROC       0.0841
     75 H26        22.5117   28.0275   19.2105 H           1 ROC       0.0841
     76 H27        23.7053   29.1117   17.2014 H           1 ROC       0.1100
     77 H28        24.8609   28.9322   15.0452 H           1 ROC       0.0348
     78 H29        24.9166   27.1723   15.1774 H           1 ROC       0.0348
     79 H30        26.2869   29.2073   16.9822 H           1 ROC       0.0309
     80 H31        28.3908   28.5127   16.1210 H           1 ROC       0.0268
     81 H32        27.3733   28.8351   14.7252 H           1 ROC       0.0268
     82 H33        28.7727   26.7561   14.4880 H           1 ROC       0.0265
     83 H34        27.0519   26.4157   14.3388 H           1 ROC       0.0265
     84 H35        28.8262   25.9294   16.7878 H           1 ROC       0.0265
     85 H36        28.0612   24.7051   15.7706 H           1 ROC       0.0265
     86 H37        26.8570   25.0421   17.9443 H           1 ROC       0.0270
     87 H38        25.8241   25.3515   16.5464 H           1 ROC       0.0270
     88 H39        27.2269   27.4356   18.2879 H           1 ROC       0.0355
     89 H40        25.2022   26.3823   19.2689 H           1 ROC       0.0818
     90 H41        25.1175   28.1364   19.1081 H           1 ROC       0.0818
     91 H42        22.8798   26.2854   15.2722 H           1 ROC       0.1859
     92 H43        20.5997   24.9260   13.0742 H           1 ROC       0.0254
     93 H44        21.0033   24.5800   14.7651 H           1 ROC       0.0254
     94 H45        22.2987   24.9209   13.6067 H           1 ROC       0.0254
     95 H46        20.6742   27.2089   12.1482 H           1 ROC       0.0254
     96 H47        22.3983   27.3923   12.5343 H           1 ROC       0.0254
     97 H48        21.2135   28.5893   13.1089 H           1 ROC       0.0254
     98 H49        18.9679   26.5377   14.1963 H           1 ROC       0.0254
     99 H50        19.5490   28.0455   14.9235 H           1 ROC       0.0254
    100 H51        19.6913   26.5226   15.8385 H           1 ROC       0.0254
@<TRIPOS>BOND
     1     2     1   2
     2     2     4   1
     3    13     2  am
     4     4     3  ar
     5     3    12  ar
     6     4     5  ar
     7     5     6  ar
     8     6     7  ar
     9     7     8  ar
    10    12     7  ar
    11     8     9  ar
    12    10     9  ar
    13    11    10  ar
    14    12    11  ar
    15    14    13   1
    16    15    14   1
    17    14    17   1
    18    15    16   2
    19    24    15  am
    20    17    18   1
    21    18    19   2
    22    18    20  am
    23    21    22   1
    24    23    21   1
    25    21    33   1
    26    23    24   1
    27    23    25   1
    28    25    26   1
    29    26    27  ar
    30    26    28  ar
    31    27    29  ar
    32    28    30  ar
    33    29    31  ar
    34    30    31  ar
    35    33    32   1
    36    32    34   1
    37    32    44   1
    38    34    35   1
    39    34    37   1
    40    35    36   2
    41    35    45  am
    42    37    38   1
    43    38    39   1
    44    38    43   1
    45    39    40   1
    46    40    41   1
    47    41    42   1
    48    42    43   1
    49    43    44   1
    50    45    46   1
    51    46    47   1
    52    46    48   1
    53    46    49   1
    54     5    50   1
    55     6    51   1
    56     8    52   1
    57     9    53   1
    58    10    54   1
    59    11    55   1
    60    13    56   1
    61    14    57   1
    62    17    58   1
    63    17    59   1
    64    20    60   1
    65    20    61   1
    66    21    62   1
    67    22    63   1
    68    23    64   1
    69    24    65   1
    70    25    66   1
    71    25    67   1
    72    27    68   1
    73    28    69   1
    74    29    70   1
    75    30    71   1
    76    31    72   1
    77    32    73   1
    78    33    74   1
    79    33    75   1
    80    34    76   1
    81    37    77   1
    82    37    78   1
    83    38    79   1
    84    39    80   1
    85    39    81   1
    86    40    82   1
    87    40    83   1
    88    41    84   1
    89    41    85   1
    90    42    86   1
    91    42    87   1
    92    43    88   1
    93    44    89   1
    94    44    90   1
    95    45    91   1
    96    47    92   1
    97    47    93   1
    98    47    94   1
    99    48    95   1
   100    48    96   1
   101    48    97   1
   102    49    98   1
   103    49    99   1
   104    49   100   1
@<TRIPOS>SUBSTRUCTURE
     1  ROC      2

