@<TRIPOS>MOLECULE
3cyx_ligand_094
   100   104
SMALL
GAST_HUCK
****
This file was generated by PARSER (from files_GN.cpp)

@<TRIPOS>ATOM
      1 O1         19.8363   25.7035   17.7607 O.2         1 ROC      -0.3762
      2 C1         19.4420   24.9224   16.9024 C.2         1 ROC       0.2293
      3 N1         17.9363   23.1437   16.4145 N.ar        1 ROC      -0.2737
      4 C2         18.7580   23.7764   17.2993 C.ar        1 ROC       0.1219
      5 C3         18.8418   23.2590   18.6172 C.ar        1 ROC      -0.0136
      6 C4         18.0696   22.1380   18.9770 C.ar        1 ROC      -0.0314
      7 C5         17.2145   21.5261   18.0349 C.ar        1 ROC       0.0097
      8 C6         16.3938   20.4236   18.3565 C.ar        1 ROC      -0.0444
      9 C7         15.5382   19.8695   17.3867 C.ar        1 ROC      -0.0546
     10 C8         15.5039   20.4059   16.0874 C.ar        1 ROC      -0.0545
     11 C9R        16.3236   21.4980   15.7510 C.ar        1 ROC      -0.0370
     12 C10        17.1745   22.0628   16.7212 C.ar        1 ROC       0.0527
     13 N2         19.6359   25.1774   15.6067 N.am        1 ROC      -0.2600
     14 C11        20.2937   26.2784   14.9252 C.3         1 ROC       0.1473
     15 C12        21.0688   27.2146   15.7580 C.2         1 ROC       0.2045
     16 O2         20.7145   28.3814   15.8865 O.2         1 ROC      -0.3943
     17 C13        19.2625   26.9921   13.9861 C.3         1 ROC       0.0773
     18 C14        18.5053   26.1064   13.1124 C.2         1 ROC       0.1780
     19 O3         19.0824   25.3893   12.3093 O.2         1 ROC      -0.3970
     20 N3         17.1908   26.0540   13.1571 N.am        1 ROC      -0.3007
     21 C15        24.3590   27.6944   16.9605 C.3         1 ROC       0.1194
     22 O4         24.4319   28.9333   16.2485 O.3         1 ROC      -0.3840
     23 C16        22.8940   27.4213   17.4555 C.3         1 ROC       0.0823
     24 N4         22.1165   26.7573   16.4334 N.am        1 ROC      -0.2772
     25 C17        22.8315   26.5502   18.7705 C.3         1 ROC       0.0066
     26 C18        22.1548   27.1723   19.9491 C.ar        1 ROC      -0.0408
     27 C19        20.8853   27.7945   19.8334 C.ar        1 ROC      -0.0603
     28 C20        22.7360   27.0989   21.2432 C.ar        1 ROC      -0.0603
     29 C21        20.2493   28.3752   20.9457 C.ar        1 ROC      -0.0686
     30 C22        22.0895   27.6515   22.3630 C.ar        1 ROC      -0.0686
     31 C23        20.8495   28.2981   22.2153 C.ar        1 ROC      -0.0687
     32 N5         26.4926   26.5757   16.1581 N.4         1 ROC       0.2562
     33 C24        24.9827   26.5518   16.1072 C.3         1 ROC      -0.0008
     34 C25        27.1292   25.2807   16.6098 C.3         1 ROC       0.0688
     35 C26        26.6436   24.8114   17.9142 C.2         1 ROC       0.2251
     36 O5         26.5936   25.6243   18.8272 O.2         1 ROC      -0.3909
     37 C27        28.6808   25.4042   16.7015 C.3         1 ROC       0.0113
     38 C28        29.3077   25.9585   15.3912 C.3         1 ROC      -0.0261
     39 C29        30.8519   26.1320   15.5006 C.3         1 ROC      -0.0494
     40 C30        31.2754   27.3502   16.3662 C.3         1 ROC      -0.0528
     41 C31        30.5773   28.6574   15.9101 C.3         1 ROC      -0.0526
     42 C32        29.0372   28.5010   15.8398 C.3         1 ROC      -0.0451
     43 C33        28.6233   27.2904   14.9450 C.3         1 ROC       0.0024
     44 C34        27.0803   27.0999   14.8781 C.3         1 ROC      -0.0266
     45 N6         26.3103   23.5330   18.0707 N.am        1 ROC      -0.2771
     46 C35        25.7713   22.7995   19.1969 C.3         1 ROC       0.0448
     47 C36        25.4119   23.6166   20.4802 C.3         1 ROC      -0.0396
     48 C37        26.8257   21.7168   19.5786 C.3         1 ROC      -0.0396
     49 C38        24.4757   22.1089   18.6739 C.3         1 ROC      -0.0396
     50 H1         19.4582   23.6853   19.3179 H           1 ROC       0.0729
     51 H2         18.1215   21.7806   19.9332 H           1 ROC       0.0774
     52 H3         16.4031   20.0209   19.2956 H           1 ROC       0.0657
     53 H4         14.9453   19.0712   17.6211 H           1 ROC       0.0652
     54 H5         14.8865   20.0015   15.3851 H           1 ROC       0.0657
     55 H6         16.2923   21.8893   14.8080 H           1 ROC       0.0653
     56 H7         19.2782   24.4995   15.0055 H           1 ROC       0.1882
     57 H8         21.0257   25.8019   14.2611 H           1 ROC       0.0826
     58 H9         19.7984   27.6998   13.3468 H           1 ROC       0.0551
     59 H10        18.5690   27.5742   14.6011 H           1 ROC       0.0551
     60 H11        16.7043   25.4555   12.5650 H           1 ROC       0.1814
     61 H12        16.7001   26.6158   13.7797 H           1 ROC       0.1814
     62 H13        24.9878   27.8434   17.8461 H           1 ROC       0.0672
     63 H14        23.8764   28.8351   15.4467 H           1 ROC       0.2101
     64 H15        22.4688   28.4062   17.6784 H           1 ROC       0.0606
     65 H16        22.3574   25.8340   16.2585 H           1 ROC       0.1857
     66 H17        23.8462   26.2705   19.0631 H           1 ROC       0.0449
     67 H18        22.3137   25.6073   18.5721 H           1 ROC       0.0449
     68 H19        20.4284   27.8596   18.9229 H           1 ROC       0.0557
     69 H20        23.6386   26.6377   21.3782 H           1 ROC       0.0557
     70 H21        19.3535   28.8563   20.8343 H           1 ROC       0.0599
     71 H22        22.5284   27.5949   23.2874 H           1 ROC       0.0599
     72 H23        20.3872   28.7119   23.0264 H           1 ROC       0.0559
     73 H24        26.7484   27.2619   16.8696 H           1 ROC       0.2057
     74 H25        24.6043   26.6359   15.0826 H           1 ROC       0.0841
     75 H26        24.5934   25.6031   16.4849 H           1 ROC       0.0841
     76 H27        26.9063   24.5262   15.8454 H           1 ROC       0.1100
     77 H28        29.1056   24.4143   16.9042 H           1 ROC       0.0348
     78 H29        28.9471   26.0542   17.5394 H           1 ROC       0.0348
     79 H30        29.1254   25.2109   14.6123 H           1 ROC       0.0309
     80 H31        31.2588   26.2669   14.4954 H           1 ROC       0.0268
     81 H32        31.2995   25.2250   15.9144 H           1 ROC       0.0268
     82 H33        32.3621   27.4785   16.2953 H           1 ROC       0.0265
     83 H34        31.0403   27.1606   17.4191 H           1 ROC       0.0265
     84 H35        30.9567   28.9397   14.9247 H           1 ROC       0.0265
     85 H36        30.8284   29.4605   16.6081 H           1 ROC       0.0265
     86 H37        28.6128   29.4198   15.4292 H           1 ROC       0.0270
     87 H38        28.6429   28.3800   16.8513 H           1 ROC       0.0270
     88 H39        28.9618   27.5136   13.9259 H           1 ROC       0.0355
     89 H40        26.6318   28.0663   14.6216 H           1 ROC       0.0818
     90 H41        26.8493   26.4136   14.0562 H           1 ROC       0.0818
     91 H42        26.4569   22.9850   17.2821 H           1 ROC       0.1859
     92 H43        25.0111   22.9589   21.2573 H           1 ROC       0.0254
     93 H44        24.6536   24.3677   20.2589 H           1 ROC       0.0254
     94 H45        26.2938   24.1157   20.8850 H           1 ROC       0.0254
     95 H46        26.4485   21.0659   20.3724 H           1 ROC       0.0254
     96 H47        27.7450   22.1895   19.9341 H           1 ROC       0.0254
     97 H48        27.0770   21.0921   18.7190 H           1 ROC       0.0254
     98 H49        24.0191   21.4883   19.4481 H           1 ROC       0.0254
     99 H50        24.6948   21.4700   17.8168 H           1 ROC       0.0254
    100 H51        23.7420   22.8564   18.3619 H           1 ROC       0.0254
@<TRIPOS>BOND
     1     2     1   2
     2     2     4   1
     3    13     2  am
     4     4     3  ar
     5     3    12  ar
     6     4     5  ar
     7     5     6  ar
     8     6     7  ar
     9     7     8  ar
    10    12     7  ar
    11     8     9  ar
    12    10     9  ar
    13    11    10  ar
    14    12    11  ar
    15    14    13   1
    16    15    14   1
    17    14    17   1
    18    15    16   2
    19    24    15  am
    20    17    18   1
    21    18    19   2
    22    18    20  am
    23    21    22   1
    24    23    21   1
    25    21    33   1
    26    23    24   1
    27    23    25   1
    28    25    26   1
    29    26    27  ar
    30    26    28  ar
    31    27    29  ar
    32    28    30  ar
    33    29    31  ar
    34    30    31  ar
    35    33    32   1
    36    32    34   1
    37    32    44   1
    38    34    35   1
    39    34    37   1
    40    35    36   2
    41    35    45  am
    42    37    38   1
    43    38    39   1
    44    38    43   1
    45    39    40   1
    46    40    41   1
    47    41    42   1
    48    42    43   1
    49    43    44   1
    50    45    46   1
    51    46    47   1
    52    46    48   1
    53    46    49   1
    54     5    50   1
    55     6    51   1
    56     8    52   1
    57     9    53   1
    58    10    54   1
    59    11    55   1
    60    13    56   1
    61    14    57   1
    62    17    58   1
    63    17    59   1
    64    20    60   1
    65    20    61   1
    66    21    62   1
    67    22    63   1
    68    23    64   1
    69    24    65   1
    70    25    66   1
    71    25    67   1
    72    27    68   1
    73    28    69   1
    74    29    70   1
    75    30    71   1
    76    31    72   1
    77    32    73   1
    78    33    74   1
    79    33    75   1
    80    34    76   1
    81    37    77   1
    82    37    78   1
    83    38    79   1
    84    39    80   1
    85    39    81   1
    86    40    82   1
    87    40    83   1
    88    41    84   1
    89    41    85   1
    90    42    86   1
    91    42    87   1
    92    43    88   1
    93    44    89   1
    94    44    90   1
    95    45    91   1
    96    47    92   1
    97    47    93   1
    98    47    94   1
    99    48    95   1
   100    48    96   1
   101    48    97   1
   102    49    98   1
   103    49    99   1
   104    49   100   1
@<TRIPOS>SUBSTRUCTURE
     1  ROC      2

