@<TRIPOS>MOLECULE
3cyx_ligand_028
   100   104
SMALL
GAST_HUCK
****
This file was generated by PARSER (from files_GN.cpp)

@<TRIPOS>ATOM
      1 O1         11.3152   15.5075   16.1811 O.2         1 ROC      -0.3762
      2 C1         10.1352   15.6988   16.4545 C.2         1 ROC       0.2293
      3 N1          8.0822   14.9403   17.3672 N.ar        1 ROC      -0.2737
      4 C2          9.3717   14.6806   17.0221 C.ar        1 ROC       0.1219
      5 C3          9.8780   13.3886   17.3062 C.ar        1 ROC      -0.0136
      6 C4          9.0554   12.4359   17.9351 C.ar        1 ROC      -0.0314
      7 C5          7.7274   12.7604   18.2838 C.ar        1 ROC       0.0097
      8 C6          6.8660   11.8495   18.9355 C.ar        1 ROC      -0.0444
      9 C7          5.5566   12.2328   19.2818 C.ar        1 ROC      -0.0546
     10 C8          5.0915   13.5257   18.9675 C.ar        1 ROC      -0.0545
     11 C9R         5.9346   14.4371   18.3104 C.ar        1 ROC      -0.0370
     12 C10         7.2482   14.0591   17.9747 C.ar        1 ROC       0.0527
     13 N2          9.5938   16.8989   16.2664 N.am        1 ROC      -0.2600
     14 C11        10.2468   18.1228   15.8850 C.3         1 ROC       0.1473
     15 C12        10.8249   18.7049   17.0950 C.2         1 ROC       0.2045
     16 O2         10.0686   19.1468   17.9551 O.2         1 ROC      -0.3943
     17 C13         9.2104   19.0509   15.1567 C.3         1 ROC       0.0773
     18 C14         9.4965   20.4846   15.1948 C.2         1 ROC       0.1780
     19 O3         10.4269   20.9605   14.5465 O.2         1 ROC      -0.3970
     20 N3          8.7643   21.3037   15.9284 N.am        1 ROC      -0.3007
     21 C15        13.6363   20.5243   18.0781 C.3         1 ROC       0.1194
     22 O4         12.7191   21.4136   17.4189 O.3         1 ROC      -0.3840
     23 C16        12.8609   19.2073   18.4384 C.3         1 ROC       0.0823
     24 N4         12.1477   18.7128   17.2839 N.am        1 ROC      -0.2772
     25 C17        13.7405   18.0551   19.0493 C.3         1 ROC       0.0066
     26 C18        13.4388   17.7729   20.4786 C.ar        1 ROC      -0.0408
     27 C19        12.7441   16.6029   20.8643 C.ar        1 ROC      -0.0603
     28 C20        13.8522   18.6846   21.4775 C.ar        1 ROC      -0.0603
     29 C21        12.4569   16.3596   22.2182 C.ar        1 ROC      -0.0686
     30 C22        13.5552   18.4433   22.8283 C.ar        1 ROC      -0.0686
     31 C23        12.8615   17.2782   23.2032 C.ar        1 ROC      -0.0687
     32 N5         15.5972   21.6100   16.6698 N.4         1 ROC       0.2562
     33 C24        14.8766   20.3610   17.1357 C.3         1 ROC      -0.0008
     34 C25        14.7923   22.6295   15.8876 C.3         1 ROC       0.0688
     35 C26        14.0635   22.0879   14.7411 C.2         1 ROC       0.2251
     36 O5         12.9922   22.5999   14.4292 O.2         1 ROC      -0.3909
     37 C27        15.7004   23.7832   15.3594 C.3         1 ROC       0.0113
     38 C28        16.5287   24.4500   16.4986 C.3         1 ROC      -0.0261
     39 C29        17.4569   25.5931   15.9882 C.3         1 ROC      -0.0494
     40 C30        18.6982   25.0758   15.2131 C.3         1 ROC      -0.0528
     41 C31        19.4827   24.0067   16.0168 C.3         1 ROC      -0.0526
     42 C32        18.5719   22.8473   16.4946 C.3         1 ROC      -0.0451
     43 C33        17.3408   23.3765   17.2962 C.3         1 ROC       0.0024
     44 C34        16.3987   22.2332   17.7768 C.3         1 ROC      -0.0266
     45 N6         14.5940   21.1078   14.0167 N.am        1 ROC      -0.2771
     46 C35        14.0661   20.4202   12.8658 C.3         1 ROC       0.0448
     47 C36        14.8351   19.0678   12.7978 C.3         1 ROC      -0.0396
     48 C37        14.3471   21.2682   11.5947 C.3         1 ROC      -0.0396
     49 C38        12.5364   20.1078   12.9845 C.3         1 ROC      -0.0396
     50 H1         10.8405   13.1353   17.0734 H           1 ROC       0.0729
     51 H2          9.4338   11.5091   18.1453 H           1 ROC       0.0774
     52 H3          7.1887   10.9078   19.1708 H           1 ROC       0.0657
     53 H4          4.9427   11.5766   19.7658 H           1 ROC       0.0652
     54 H5          4.1398   13.8016   19.2237 H           1 ROC       0.0657
     55 H6          5.5917   15.3759   18.0876 H           1 ROC       0.0653
     56 H7          8.6726   17.0058   16.5528 H           1 ROC       0.1882
     57 H8         11.0412   17.8931   15.1692 H           1 ROC       0.0826
     58 H9          8.2113   18.8780   15.5822 H           1 ROC       0.0551
     59 H10         9.1630   18.7429   14.1058 H           1 ROC       0.0551
     60 H11         8.9744   22.2503   15.9372 H           1 ROC       0.1814
     61 H12         8.0456   20.9531   16.4853 H           1 ROC       0.1814
     62 H13        13.9621   20.9925   19.0207 H           1 ROC       0.0672
     63 H14        12.0908   21.7238   18.1294 H           1 ROC       0.2101
     64 H15        12.1325   19.5236   19.1928 H           1 ROC       0.0606
     65 H16        12.6901   18.2870   16.5968 H           1 ROC       0.1857
     66 H17        14.8062   18.2937   18.9715 H           1 ROC       0.0449
     67 H18        13.6051   17.1425   18.4517 H           1 ROC       0.0449
     68 H19        12.4197   15.9352   20.1616 H           1 ROC       0.0557
     69 H20        14.3544   19.5409   21.2240 H           1 ROC       0.0557
     70 H21        11.9444   15.5159   22.4835 H           1 ROC       0.0599
     71 H22        13.8421   19.1166   23.5425 H           1 ROC       0.0599
     72 H23        12.6470   17.1021   24.1870 H           1 ROC       0.0559
     73 H24        16.2962   21.2692   16.0057 H           1 ROC       0.2057
     74 H25        14.5629   19.7755   16.2697 H           1 ROC       0.0841
     75 H26        15.6214   19.7393   17.6417 H           1 ROC       0.0841
     76 H27        14.0713   23.1008   16.5614 H           1 ROC       0.1100
     77 H28        15.0759   24.5538   14.8909 H           1 ROC       0.0348
     78 H29        16.3735   23.3832   14.5945 H           1 ROC       0.0348
     79 H30        15.8107   24.9080   17.1904 H           1 ROC       0.0309
     80 H31        17.8034   26.1703   16.8479 H           1 ROC       0.0268
     81 H32        16.8876   26.2708   15.3497 H           1 ROC       0.0268
     82 H33        19.3613   25.9209   14.9964 H           1 ROC       0.0265
     83 H34        18.3850   24.6521   14.2511 H           1 ROC       0.0265
     84 H35        19.9459   24.4817   16.8860 H           1 ROC       0.0265
     85 H36        20.2810   23.6032   15.3917 H           1 ROC       0.0265
     86 H37        19.1595   22.1842   17.1303 H           1 ROC       0.0270
     87 H38        18.2386   22.2682   15.6291 H           1 ROC       0.0270
     88 H39        17.7341   23.8648   18.1999 H           1 ROC       0.0355
     89 H40        17.0126   21.4705   18.2710 H           1 ROC       0.0818
     90 H41        15.7301   22.6533   18.5335 H           1 ROC       0.0818
     91 H42        15.4551   20.7804   14.3228 H           1 ROC       0.1859
     92 H43        14.4709   18.4517   11.9749 H           1 ROC       0.0254
     93 H44        14.7005   18.5094   13.7302 H           1 ROC       0.0254
     94 H45        15.8993   19.2546   12.6487 H           1 ROC       0.0254
     95 H46        14.0502   20.7084   10.7103 H           1 ROC       0.0254
     96 H47        15.4082   21.5059   11.5182 H           1 ROC       0.0254
     97 H48        13.7858   22.2054   11.6159 H           1 ROC       0.0254
     98 H49        12.2096   19.4478   12.1698 H           1 ROC       0.0254
     99 H50        11.9339   21.0214   12.9242 H           1 ROC       0.0254
    100 H51        12.3178   19.6155   13.9405 H           1 ROC       0.0254
@<TRIPOS>BOND
     1     2     1   2
     2     2     4   1
     3    13     2  am
     4     4     3  ar
     5     3    12  ar
     6     4     5  ar
     7     5     6  ar
     8     6     7  ar
     9     7     8  ar
    10    12     7  ar
    11     8     9  ar
    12    10     9  ar
    13    11    10  ar
    14    12    11  ar
    15    14    13   1
    16    15    14   1
    17    14    17   1
    18    15    16   2
    19    24    15  am
    20    17    18   1
    21    18    19   2
    22    18    20  am
    23    21    22   1
    24    23    21   1
    25    21    33   1
    26    23    24   1
    27    23    25   1
    28    25    26   1
    29    26    27  ar
    30    26    28  ar
    31    27    29  ar
    32    28    30  ar
    33    29    31  ar
    34    30    31  ar
    35    33    32   1
    36    32    34   1
    37    32    44   1
    38    34    35   1
    39    34    37   1
    40    35    36   2
    41    35    45  am
    42    37    38   1
    43    38    39   1
    44    38    43   1
    45    39    40   1
    46    40    41   1
    47    41    42   1
    48    42    43   1
    49    43    44   1
    50    45    46   1
    51    46    47   1
    52    46    48   1
    53    46    49   1
    54     5    50   1
    55     6    51   1
    56     8    52   1
    57     9    53   1
    58    10    54   1
    59    11    55   1
    60    13    56   1
    61    14    57   1
    62    17    58   1
    63    17    59   1
    64    20    60   1
    65    20    61   1
    66    21    62   1
    67    22    63   1
    68    23    64   1
    69    24    65   1
    70    25    66   1
    71    25    67   1
    72    27    68   1
    73    28    69   1
    74    29    70   1
    75    30    71   1
    76    31    72   1
    77    32    73   1
    78    33    74   1
    79    33    75   1
    80    34    76   1
    81    37    77   1
    82    37    78   1
    83    38    79   1
    84    39    80   1
    85    39    81   1
    86    40    82   1
    87    40    83   1
    88    41    84   1
    89    41    85   1
    90    42    86   1
    91    42    87   1
    92    43    88   1
    93    44    89   1
    94    44    90   1
    95    45    91   1
    96    47    92   1
    97    47    93   1
    98    47    94   1
    99    48    95   1
   100    48    96   1
   101    48    97   1
   102    49    98   1
   103    49    99   1
   104    49   100   1
@<TRIPOS>SUBSTRUCTURE
     1  ROC      2

