@<TRIPOS>MOLECULE
3cyx_ligand_081
   100   104
SMALL
GAST_HUCK
****
This file was generated by PARSER (from files_GN.cpp)

@<TRIPOS>ATOM
      1 O1         17.3013   22.3026   18.8397 O.2         1 ROC      -0.3762
      2 C1         16.4626   21.5215   18.3970 C.2         1 ROC       0.2293
      3 N1         14.7590   19.9456   18.8858 N.ar        1 ROC      -0.2737
      4 C2         15.9569   20.5129   19.2056 C.ar        1 ROC       0.1219
      5 C3         16.5902   20.0860   20.3944 C.ar        1 ROC      -0.0136
      6 C4         15.9863   19.1058   21.2052 C.ar        1 ROC      -0.0314
      7 C5         14.7371   18.5594   20.8389 C.ar        1 ROC       0.0097
      8 C6         14.0709   17.5981   21.6335 C.ar        1 ROC      -0.0444
      9 C7         12.8173   17.0932   21.2339 C.ar        1 ROC      -0.0546
     10 C8         12.2223   17.5428   20.0394 C.ar        1 ROC      -0.0545
     11 C9R        12.8788   18.4956   19.2372 C.ar        1 ROC      -0.0370
     12 C10        14.1308   19.0048   19.6362 C.ar        1 ROC       0.0527
     13 N2         15.9867   21.6772   17.1661 N.am        1 ROC      -0.2600
     14 C11        16.1586   22.7891   16.2740 C.3         1 ROC       0.1473
     15 C12        17.5716   23.1015   16.0324 C.2         1 ROC       0.2045
     16 O2         18.3363   22.1688   15.8075 O.2         1 ROC      -0.3943
     17 C13        15.2511   23.9978   16.6837 C.3         1 ROC       0.0773
     18 C14        13.8697   23.6471   16.9908 C.2         1 ROC       0.1780
     19 O3         13.6042   23.0148   18.0058 O.2         1 ROC      -0.3970
     20 N3         12.8566   24.0342   16.2458 N.am        1 ROC      -0.3007
     21 C15        19.5811   26.2290   16.1142 C.3         1 ROC       0.1194
     22 O4         18.8625   27.2207   15.3797 O.3         1 ROC      -0.3840
     23 C16        19.3140   24.8030   15.5105 C.3         1 ROC       0.0823
     24 N4         18.0176   24.3510   15.9484 N.am        1 ROC      -0.2772
     25 C17        19.4483   24.7195   13.9462 C.3         1 ROC       0.0066
     26 C18        18.2044   24.9327   13.1306 C.ar        1 ROC      -0.0408
     27 C19        17.9583   26.1610   12.4736 C.ar        1 ROC      -0.0603
     28 C20        17.2695   23.8854   12.9314 C.ar        1 ROC      -0.0603
     29 C21        16.8222   26.3458   11.6673 C.ar        1 ROC      -0.0686
     30 C22        16.1348   24.0565   12.1153 C.ar        1 ROC      -0.0686
     31 C23        15.9150   25.2883   11.4753 C.ar        1 ROC      -0.0687
     32 N5         21.9679   26.2082   17.3541 N.4         1 ROC       0.2562
     33 C24        21.0807   26.6895   16.2233 C.3         1 ROC      -0.0008
     34 C25        23.0728   27.2012   17.6881 C.3         1 ROC       0.0688
     35 C26        24.0087   27.4686   16.5935 C.2         1 ROC       0.2251
     36 O5         24.3060   26.5544   15.8338 O.2         1 ROC      -0.3909
     37 C27        23.9473   26.8046   18.9198 C.3         1 ROC       0.0113
     38 C28        23.0826   26.4757   20.1687 C.3         1 ROC      -0.0261
     39 C29        23.9214   26.0544   21.4100 C.3         1 ROC      -0.0494
     40 C30        24.5353   24.6379   21.2813 C.3         1 ROC      -0.0528
     41 C31        23.4686   23.5726   20.9147 C.3         1 ROC      -0.0526
     42 C32        22.6389   23.9675   19.6667 C.3         1 ROC      -0.0451
     43 C33        22.0147   25.3916   19.8213 C.3         1 ROC       0.0024
     44 C34        21.1858   25.8295   18.5811 C.3         1 ROC      -0.0266
     45 N6         24.6807   28.6206   16.5916 N.am        1 ROC      -0.2771
     46 C35        25.8846   28.9833   15.8726 C.3         1 ROC       0.0448
     47 C36        25.8427   30.5374   15.7190 C.3         1 ROC      -0.0396
     48 C37        25.9656   28.3320   14.4539 C.3         1 ROC      -0.0396
     49 C38        27.1338   28.5942   16.7203 C.3         1 ROC      -0.0396
     50 H1         17.4931   20.4750   20.6786 H           1 ROC       0.0729
     51 H2         16.4564   18.8061   22.0581 H           1 ROC       0.0774
     52 H3         14.4878   17.2646   22.5047 H           1 ROC       0.0657
     53 H4         12.3372   16.4011   21.8133 H           1 ROC       0.0652
     54 H5         11.3086   17.1771   19.7563 H           1 ROC       0.0657
     55 H6         12.4363   18.8210   18.3747 H           1 ROC       0.0653
     56 H7         15.3823   20.9835   16.8571 H           1 ROC       0.1882
     57 H8         15.7730   22.4497   15.3127 H           1 ROC       0.0826
     58 H9         15.2599   24.7159   15.8661 H           1 ROC       0.0551
     59 H10        15.6757   24.4953   17.5610 H           1 ROC       0.0551
     60 H11        11.9545   23.8028   16.5168 H           1 ROC       0.1814
     61 H12        13.0056   24.5519   15.4395 H           1 ROC       0.1814
     62 H13        19.1604   26.2643   17.1224 H           1 ROC       0.0672
     63 H14        18.0361   26.7731   15.0920 H           1 ROC       0.2101
     64 H15        20.0627   24.1395   15.9530 H           1 ROC       0.0606
     65 H16        17.3796   25.0465   16.1630 H           1 ROC       0.1857
     66 H17        19.8416   23.7344   13.6992 H           1 ROC       0.0449
     67 H18        20.2182   25.4239   13.6219 H           1 ROC       0.0449
     68 H19        18.6181   26.9363   12.5691 H           1 ROC       0.0557
     69 H20        17.4059   22.9777   13.3663 H           1 ROC       0.0557
     70 H21        16.6574   27.2458   11.2101 H           1 ROC       0.0599
     71 H22        15.4769   23.2878   11.9753 H           1 ROC       0.0599
     72 H23        15.0996   25.4138   10.8709 H           1 ROC       0.0559
     73 H24        22.4189   25.3478   17.0353 H           1 ROC       0.2057
     74 H25        21.0479   27.7822   16.2528 H           1 ROC       0.0841
     75 H26        21.5728   26.4303   15.2862 H           1 ROC       0.0841
     76 H27        22.5808   28.1386   17.9681 H           1 ROC       0.1100
     77 H28        24.6172   27.6351   19.1774 H           1 ROC       0.0348
     78 H29        24.5796   25.9473   18.6663 H           1 ROC       0.0348
     79 H30        22.5542   27.3990   20.4332 H           1 ROC       0.0309
     80 H31        23.2671   26.0723   22.2897 H           1 ROC       0.0268
     81 H32        24.7128   26.7851   21.5834 H           1 ROC       0.0268
     82 H33        24.9978   24.3647   22.2324 H           1 ROC       0.0265
     83 H34        25.3156   24.6433   20.5224 H           1 ROC       0.0265
     84 H35        22.7886   23.4379   21.7639 H           1 ROC       0.0265
     85 H36        23.9643   22.6162   20.7307 H           1 ROC       0.0265
     86 H37        21.8389   23.2343   19.5326 H           1 ROC       0.0270
     87 H38        23.2734   23.9233   18.7761 H           1 ROC       0.0270
     88 H39        21.3174   25.3396   20.6637 H           1 ROC       0.0355
     89 H40        20.5179   24.9994   18.3446 H           1 ROC       0.0818
     90 H41        20.5598   26.6782   18.8820 H           1 ROC       0.0818
     91 H42        24.3980   29.2661   17.2671 H           1 ROC       0.1859
     92 H43        26.7327   30.9019   15.2045 H           1 ROC       0.0254
     93 H44        25.7947   31.0204   16.6998 H           1 ROC       0.0254
     94 H45        24.9641   30.8468   15.1490 H           1 ROC       0.0254
     95 H46        26.7688   28.7861   13.8594 H           1 ROC       0.0254
     96 H47        25.0256   28.4646   13.9152 H           1 ROC       0.0254
     97 H48        26.1747   27.2627   14.5182 H           1 ROC       0.0254
     98 H49        28.0464   28.9116   16.2194 H           1 ROC       0.0254
     99 H50        27.1770   27.5163   16.8686 H           1 ROC       0.0254
    100 H51        27.0941   29.0712   17.7013 H           1 ROC       0.0254
@<TRIPOS>BOND
     1     2     1   2
     2     2     4   1
     3    13     2  am
     4     4     3  ar
     5     3    12  ar
     6     4     5  ar
     7     5     6  ar
     8     6     7  ar
     9     7     8  ar
    10    12     7  ar
    11     8     9  ar
    12    10     9  ar
    13    11    10  ar
    14    12    11  ar
    15    14    13   1
    16    15    14   1
    17    14    17   1
    18    15    16   2
    19    24    15  am
    20    17    18   1
    21    18    19   2
    22    18    20  am
    23    21    22   1
    24    23    21   1
    25    21    33   1
    26    23    24   1
    27    23    25   1
    28    25    26   1
    29    26    27  ar
    30    26    28  ar
    31    27    29  ar
    32    28    30  ar
    33    29    31  ar
    34    30    31  ar
    35    33    32   1
    36    32    34   1
    37    32    44   1
    38    34    35   1
    39    34    37   1
    40    35    36   2
    41    35    45  am
    42    37    38   1
    43    38    39   1
    44    38    43   1
    45    39    40   1
    46    40    41   1
    47    41    42   1
    48    42    43   1
    49    43    44   1
    50    45    46   1
    51    46    47   1
    52    46    48   1
    53    46    49   1
    54     5    50   1
    55     6    51   1
    56     8    52   1
    57     9    53   1
    58    10    54   1
    59    11    55   1
    60    13    56   1
    61    14    57   1
    62    17    58   1
    63    17    59   1
    64    20    60   1
    65    20    61   1
    66    21    62   1
    67    22    63   1
    68    23    64   1
    69    24    65   1
    70    25    66   1
    71    25    67   1
    72    27    68   1
    73    28    69   1
    74    29    70   1
    75    30    71   1
    76    31    72   1
    77    32    73   1
    78    33    74   1
    79    33    75   1
    80    34    76   1
    81    37    77   1
    82    37    78   1
    83    38    79   1
    84    39    80   1
    85    39    81   1
    86    40    82   1
    87    40    83   1
    88    41    84   1
    89    41    85   1
    90    42    86   1
    91    42    87   1
    92    43    88   1
    93    44    89   1
    94    44    90   1
    95    45    91   1
    96    47    92   1
    97    47    93   1
    98    47    94   1
    99    48    95   1
   100    48    96   1
   101    48    97   1
   102    49    98   1
   103    49    99   1
   104    49   100   1
@<TRIPOS>SUBSTRUCTURE
     1  ROC      2

