@<TRIPOS>MOLECULE
3cyx_ligand_035
   100   104
SMALL
GAST_HUCK
****
This file was generated by PARSER (from files_GN.cpp)

@<TRIPOS>ATOM
      1 O1         17.0052   20.6862   16.5355 O.2         1 ROC      -0.3762
      2 C1         15.8299   20.9317   16.2791 C.2         1 ROC       0.2293
      3 N1         13.5514   20.3114   16.4211 N.ar        1 ROC      -0.2737
      4 C2         14.8345   20.1564   16.8530 C.ar        1 ROC       0.1219
      5 C3         15.0799   19.1972   17.8639 C.ar        1 ROC      -0.0136
      6 C4         14.0143   18.4540   18.4043 C.ar        1 ROC      -0.0314
      7 C5         12.7052   18.6441   17.9173 C.ar        1 ROC       0.0097
      8 C6         11.6062   17.9014   18.4047 C.ar        1 ROC      -0.0444
      9 C7         10.3262   18.1075   17.8593 C.ar        1 ROC      -0.0546
     10 C8         10.1270   19.0607   16.8462 C.ar        1 ROC      -0.0545
     11 C9R        11.2129   19.8178   16.3640 C.ar        1 ROC      -0.0370
     12 C10        12.4992   19.6041   16.8959 C.ar        1 ROC       0.0527
     13 N2         15.5244   21.9361   15.4558 N.am        1 ROC      -0.2600
     14 C11        16.4603   22.7772   14.7599 C.3         1 ROC       0.1473
     15 C12        17.3023   23.4916   15.7173 C.2         1 ROC       0.2045
     16 O2         18.5071   23.3354   15.5993 O.2         1 ROC      -0.3943
     17 C13        15.7491   23.7476   13.7646 C.3         1 ROC       0.0773
     18 C14        16.5841   24.4984   12.8302 C.2         1 ROC       0.1780
     19 O3         16.0388   25.1400   11.9411 O.2         1 ROC      -0.3970
     20 N3         17.8976   24.5601   12.8523 N.am        1 ROC      -0.3007
     21 C15        18.9267   25.2981   17.7473 C.3         1 ROC       0.1194
     22 O4         19.3247   25.7926   16.4666 O.3         1 ROC      -0.3840
     23 C16        17.3679   25.0736   17.6979 C.3         1 ROC       0.0823
     24 N4         16.7735   24.2398   16.6793 N.am        1 ROC      -0.2772
     25 C17        16.7627   24.8479   19.1318 C.3         1 ROC       0.0066
     26 C18        15.9842   23.5970   19.3750 C.ar        1 ROC      -0.0408
     27 C19        14.6558   23.4842   18.8939 C.ar        1 ROC      -0.0603
     28 C20        16.4911   22.5663   20.2023 C.ar        1 ROC      -0.0603
     29 C21        13.8435   22.4022   19.2767 C.ar        1 ROC      -0.0686
     30 C22        15.6754   21.4888   20.5903 C.ar        1 ROC      -0.0686
     31 C23        14.3436   21.4224   20.1473 C.ar        1 ROC      -0.0687
     32 N5         21.2598   24.2997   18.6967 N.4         1 ROC       0.2562
     33 C24        19.8440   24.1038   18.1783 C.3         1 ROC      -0.0008
     34 C25        21.7901   25.7004   18.9126 C.3         1 ROC       0.0688
     35 C26        21.6867   26.5976   17.7614 C.2         1 ROC       0.2251
     36 O5         21.2141   27.7091   17.9469 O.2         1 ROC      -0.3909
     37 C27        23.2926   25.6698   19.3349 C.3         1 ROC       0.0113
     38 C28        23.5677   24.7769   20.5841 C.3         1 ROC      -0.0261
     39 C29        25.0721   24.7552   20.9983 C.3         1 ROC      -0.0494
     40 C30        25.9582   23.9123   20.0442 C.3         1 ROC      -0.0528
     41 C31        25.3911   22.4840   19.8523 C.3         1 ROC      -0.0526
     42 C32        23.9056   22.4897   19.4067 C.3         1 ROC      -0.0451
     43 C33        23.0039   23.3368   20.3603 C.3         1 ROC       0.0024
     44 C34        21.5242   23.4042   19.8866 C.3         1 ROC      -0.0266
     45 N6         22.1497   26.2366   16.5585 N.am        1 ROC      -0.2771
     46 C35        22.1528   26.9235   15.2799 C.3         1 ROC       0.0448
     47 C36        21.2557   28.2002   15.1688 C.3         1 ROC      -0.0396
     48 C37        21.6881   25.9055   14.1891 C.3         1 ROC      -0.0396
     49 C38        23.6304   27.3166   14.9835 C.3         1 ROC      -0.0396
     50 H1         16.0260   19.0386   18.2270 H           1 ROC       0.0729
     51 H2         14.2038   17.7706   19.1430 H           1 ROC       0.0774
     52 H3         11.7325   17.2069   19.1424 H           1 ROC       0.0657
     53 H4          9.5364   17.5539   18.2032 H           1 ROC       0.0652
     54 H5          9.1952   19.2103   16.4521 H           1 ROC       0.0657
     55 H6         11.0644   20.5098   15.6278 H           1 ROC       0.0653
     56 H7         14.5824   22.1007   15.2939 H           1 ROC       0.1882
     57 H8         17.0638   22.1046   14.1410 H           1 ROC       0.0826
     58 H9         15.1572   24.4664   14.3385 H           1 ROC       0.0551
     59 H10        15.0470   23.1583   13.1740 H           1 ROC       0.0551
     60 H11        18.3655   25.1116   12.2047 H           1 ROC       0.1814
     61 H12        18.4077   24.0800   13.5200 H           1 ROC       0.1814
     62 H13        19.1001   26.1072   18.4605 H           1 ROC       0.0672
     63 H14        18.8297   26.6291   16.3469 H           1 ROC       0.2101
     64 H15        16.9917   26.0596   17.4040 H           1 ROC       0.0606
     65 H16        15.8022   24.2781   16.6682 H           1 ROC       0.1857
     66 H17        16.1021   25.6831   19.3722 H           1 ROC       0.0449
     67 H18        17.5526   24.9140   19.8893 H           1 ROC       0.0449
     68 H19        14.2587   24.2191   18.2978 H           1 ROC       0.0557
     69 H20        17.4516   22.6140   20.5596 H           1 ROC       0.0557
     70 H21        12.8850   22.3411   18.9342 H           1 ROC       0.0599
     71 H22        16.0476   20.7679   21.2101 H           1 ROC       0.0599
     72 H23        13.7440   20.6563   20.4528 H           1 ROC       0.0559
     73 H24        21.8481   23.9224   17.9518 H           1 ROC       0.2057
     74 H25        19.9916   23.4583   17.3177 H           1 ROC       0.0841
     75 H26        19.2531   23.5038   18.8731 H           1 ROC       0.0841
     76 H27        21.2276   26.1373   19.7448 H           1 ROC       0.1100
     77 H28        23.6333   26.6882   19.5601 H           1 ROC       0.0348
     78 H29        23.8916   25.3026   18.4952 H           1 ROC       0.0348
     79 H30        23.0157   25.2233   21.4228 H           1 ROC       0.0309
     80 H31        25.1561   24.3375   22.0037 H           1 ROC       0.0268
     81 H32        25.4619   25.7742   21.0387 H           1 ROC       0.0268
     82 H33        26.9683   23.8456   20.4558 H           1 ROC       0.0265
     83 H34        26.0336   24.4081   19.0733 H           1 ROC       0.0265
     84 H35        25.4832   21.9375   20.7960 H           1 ROC       0.0265
     85 H36        25.9916   21.9566   19.1050 H           1 ROC       0.0265
     86 H37        23.5453   21.4566   19.3938 H           1 ROC       0.0270
     87 H38        23.8374   22.8711   18.3848 H           1 ROC       0.0270
     88 H39        23.0118   22.8272   21.3302 H           1 ROC       0.0355
     89 H40        21.2104   22.3787   19.6570 H           1 ROC       0.0818
     90 H41        20.9061   23.7414   20.7285 H           1 ROC       0.0818
     91 H42        22.5793   25.3686   16.5446 H           1 ROC       0.1859
     92 H43        21.2445   28.5737   14.1434 H           1 ROC       0.0254
     93 H44        21.6324   29.0038   15.8051 H           1 ROC       0.0254
     94 H45        20.2285   27.9823   15.4543 H           1 ROC       0.0254
     95 H46        21.7131   26.3648   13.2014 H           1 ROC       0.0254
     96 H47        20.6679   25.5686   14.3761 H           1 ROC       0.0254
     97 H48        22.3370   25.0286   14.1660 H           1 ROC       0.0254
     98 H49        23.7173   27.7722   13.9975 H           1 ROC       0.0254
     99 H50        24.2795   26.4391   15.0102 H           1 ROC       0.0254
    100 H51        23.9909   28.0294   15.7311 H           1 ROC       0.0254
@<TRIPOS>BOND
     1     2     1   2
     2     2     4   1
     3    13     2  am
     4     4     3  ar
     5     3    12  ar
     6     4     5  ar
     7     5     6  ar
     8     6     7  ar
     9     7     8  ar
    10    12     7  ar
    11     8     9  ar
    12    10     9  ar
    13    11    10  ar
    14    12    11  ar
    15    14    13   1
    16    15    14   1
    17    14    17   1
    18    15    16   2
    19    24    15  am
    20    17    18   1
    21    18    19   2
    22    18    20  am
    23    21    22   1
    24    23    21   1
    25    21    33   1
    26    23    24   1
    27    23    25   1
    28    25    26   1
    29    26    27  ar
    30    26    28  ar
    31    27    29  ar
    32    28    30  ar
    33    29    31  ar
    34    30    31  ar
    35    33    32   1
    36    32    34   1
    37    32    44   1
    38    34    35   1
    39    34    37   1
    40    35    36   2
    41    35    45  am
    42    37    38   1
    43    38    39   1
    44    38    43   1
    45    39    40   1
    46    40    41   1
    47    41    42   1
    48    42    43   1
    49    43    44   1
    50    45    46   1
    51    46    47   1
    52    46    48   1
    53    46    49   1
    54     5    50   1
    55     6    51   1
    56     8    52   1
    57     9    53   1
    58    10    54   1
    59    11    55   1
    60    13    56   1
    61    14    57   1
    62    17    58   1
    63    17    59   1
    64    20    60   1
    65    20    61   1
    66    21    62   1
    67    22    63   1
    68    23    64   1
    69    24    65   1
    70    25    66   1
    71    25    67   1
    72    27    68   1
    73    28    69   1
    74    29    70   1
    75    30    71   1
    76    31    72   1
    77    32    73   1
    78    33    74   1
    79    33    75   1
    80    34    76   1
    81    37    77   1
    82    37    78   1
    83    38    79   1
    84    39    80   1
    85    39    81   1
    86    40    82   1
    87    40    83   1
    88    41    84   1
    89    41    85   1
    90    42    86   1
    91    42    87   1
    92    43    88   1
    93    44    89   1
    94    44    90   1
    95    45    91   1
    96    47    92   1
    97    47    93   1
    98    47    94   1
    99    48    95   1
   100    48    96   1
   101    48    97   1
   102    49    98   1
   103    49    99   1
   104    49   100   1
@<TRIPOS>SUBSTRUCTURE
     1  ROC      2

