@<TRIPOS>MOLECULE
3cyx_ligand_000
   100   104
SMALL
GAST_HUCK
****
This file was generated by PARSER (from files_GN.cpp)

@<TRIPOS>ATOM
      1 O1         21.5502   28.0916   18.4501 O.2         1 ROC      -0.3762
      2 C1         22.6533   27.5556   18.4081 C.2         1 ROC       0.2293
      3 N1         24.6335   26.9016   19.5372 N.ar        1 ROC      -0.2737
      4 C2         23.3197   27.2576   19.5876 C.ar        1 ROC       0.1219
      5 C3         22.7078   27.3385   20.8628 C.ar        1 ROC      -0.0136
      6 C4         23.4452   27.0213   22.0194 C.ar        1 ROC      -0.0314
      7 C5         24.8056   26.6612   21.9205 C.ar        1 ROC       0.0097
      8 C6         25.5959   26.3644   23.0482 C.ar        1 ROC      -0.0444
      9 C7         26.9567   26.0371   22.8973 C.ar        1 ROC      -0.0546
     10 C8         27.5335   25.9972   21.6085 C.ar        1 ROC      -0.0545
     11 C9R        26.7495   26.2813   20.4786 C.ar        1 ROC      -0.0370
     12 C10        25.3929   26.6132   20.6255 C.ar        1 ROC       0.0527
     13 N2         23.1959   27.2765   17.2229 N.am        1 ROC      -0.2600
     14 C11        22.6968   27.6797   15.9331 C.3         1 ROC       0.1473
     15 C12        21.2800   27.3628   15.7668 C.2         1 ROC       0.2045
     16 O2         20.4883   28.2857   15.5807 O.2         1 ROC      -0.3943
     17 C13        23.5324   27.0417   14.7773 C.3         1 ROC       0.0773
     18 C14        24.9637   27.2484   14.8939 C.2         1 ROC       0.1780
     19 O3         25.7174   26.3042   15.0899 O.2         1 ROC      -0.3970
     20 N3         25.4961   28.4467   14.7762 N.am        1 ROC      -0.3007
     21 C15        19.1416   24.9342   17.1461 C.3         1 ROC       0.1194
     22 O4         19.7108   23.6215   17.2105 O.3         1 ROC      -0.3840
     23 C16        19.5141   25.6273   15.7849 C.3         1 ROC       0.0823
     24 N4         20.8716   26.1038   15.8799 N.am        1 ROC      -0.2772
     25 C17        19.3979   24.7136   14.5104 C.3         1 ROC       0.0066
     26 C18        18.2047   24.9405   13.6485 C.ar        1 ROC      -0.0408
     27 C19        18.0443   26.1774   12.9777 C.ar        1 ROC      -0.0603
     28 C20        17.2749   23.9053   13.3812 C.ar        1 ROC      -0.0603
     29 C21        17.0085   26.3650   12.0438 C.ar        1 ROC      -0.0686
     30 C22        16.2375   24.0924   12.4488 C.ar        1 ROC      -0.0686
     31 C23        16.1169   25.3142   11.7634 C.ar        1 ROC      -0.0687
     32 N5         17.1064   23.6661   18.1430 N.4         1 ROC       0.2562
     33 C24        17.6083   24.9131   17.4461 C.3         1 ROC      -0.0008
     34 C25        16.9157   23.7845   19.6418 C.3         1 ROC       0.0688
     35 C26        18.0929   24.2157   20.3996 C.2         1 ROC       0.2251
     36 O5         17.9046   25.0015   21.3258 O.2         1 ROC      -0.3909
     37 C27        16.4131   22.4427   20.2681 C.3         1 ROC       0.0113
     38 C28        15.1410   21.8917   19.5596 C.3         1 ROC      -0.0261
     39 C29        14.6472   20.5309   20.1439 C.3         1 ROC      -0.0494
     40 C30        15.5178   19.3189   19.7179 C.3         1 ROC      -0.0528
     41 C31        15.7253   19.2613   18.1830 C.3         1 ROC      -0.0526
     42 C32        16.2715   20.5980   17.6187 C.3         1 ROC      -0.0451
     43 C33        15.3535   21.7951   18.0163 C.3         1 ROC       0.0024
     44 C34        15.8678   23.1510   17.4656 C.3         1 ROC      -0.0266
     45 N6         19.2875   23.6725   20.1746 N.am        1 ROC      -0.2771
     46 C35        20.5544   23.7788   20.8722 C.3         1 ROC       0.0448
     47 C36        21.6058   24.2951   19.8455 C.3         1 ROC      -0.0396
     48 C37        20.9420   22.3309   21.3088 C.3         1 ROC      -0.0396
     49 C38        20.5985   24.6972   22.1379 C.3         1 ROC      -0.0396
     50 H1         21.7289   27.6185   20.9631 H           1 ROC       0.0729
     51 H2         22.9910   27.0801   22.9333 H           1 ROC       0.0774
     52 H3         25.1943   26.3938   23.9906 H           1 ROC       0.0657
     53 H4         27.5302   25.8326   23.7158 H           1 ROC       0.0652
     54 H5         28.5227   25.7679   21.5028 H           1 ROC       0.0657
     55 H6         27.1777   26.2548   19.5471 H           1 ROC       0.0653
     56 H7         24.0371   26.7922   17.2390 H           1 ROC       0.1882
     57 H8         22.8352   28.7641   15.8706 H           1 ROC       0.0826
     58 H9         23.2122   27.4661   13.8224 H           1 ROC       0.0551
     59 H10        23.3202   25.9687   14.7377 H           1 ROC       0.0551
     60 H11        26.4559   28.5637   14.8437 H           1 ROC       0.1814
     61 H12        24.9273   29.2123   14.6012 H           1 ROC       0.1814
     62 H13        19.6020   25.5027   17.9594 H           1 ROC       0.0672
     63 H14        20.6431   23.7119   16.9087 H           1 ROC       0.2101
     64 H15        18.8359   26.4791   15.6657 H           1 ROC       0.0606
     65 H16        21.5599   25.4297   16.0314 H           1 ROC       0.1857
     66 H17        19.4564   23.6637   14.7998 H           1 ROC       0.0449
     67 H18        20.2618   24.8780   13.8591 H           1 ROC       0.0449
     68 H19        18.7043   26.9418   13.1420 H           1 ROC       0.0557
     69 H20        17.3603   22.9999   13.8474 H           1 ROC       0.0557
     70 H21        16.9116   27.2607   11.5581 H           1 ROC       0.0599
     71 H22        15.5796   23.3338   12.2544 H           1 ROC       0.0599
     72 H23        15.3757   25.4430   11.0703 H           1 ROC       0.0559
     73 H24        17.8109   22.9418   18.0017 H           1 ROC       0.2057
     74 H25        17.0949   25.0609   16.4915 H           1 ROC       0.0841
     75 H26        17.3491   25.7984   18.0351 H           1 ROC       0.0841
     76 H27        16.1137   24.5178   19.8000 H           1 ROC       0.1100
     77 H28        16.1763   22.6031   21.3252 H           1 ROC       0.0348
     78 H29        17.2105   21.6984   20.2222 H           1 ROC       0.0348
     79 H30        14.3386   22.6162   19.7397 H           1 ROC       0.0309
     80 H31        13.6218   20.3545   19.8037 H           1 ROC       0.0268
     81 H32        14.6171   20.5848   21.2365 H           1 ROC       0.0268
     82 H33        15.0353   18.3952   20.0473 H           1 ROC       0.0265
     83 H34        16.4891   19.3762   20.2130 H           1 ROC       0.0265
     84 H35        14.7731   19.0273   17.6979 H           1 ROC       0.0265
     85 H36        16.4248   18.4565   17.9476 H           1 ROC       0.0265
     86 H37        16.3277   20.5212   16.5286 H           1 ROC       0.0270
     87 H38        17.2879   20.7570   17.9857 H           1 ROC       0.0270
     88 H39        14.3778   21.6178   17.5498 H           1 ROC       0.0355
     89 H40        16.0559   23.0097   16.3974 H           1 ROC       0.0818
     90 H41        15.0710   23.8976   17.5548 H           1 ROC       0.0818
     91 H42        19.3085   23.0717   19.4122 H           1 ROC       0.1859
     92 H43        22.6020   24.3364   20.2921 H           1 ROC       0.0254
     93 H44        21.3438   25.2968   19.5041 H           1 ROC       0.0254
     94 H45        21.6533   23.6362   18.9755 H           1 ROC       0.0254
     95 H46        21.9259   22.3146   21.7840 H           1 ROC       0.0254
     96 H47        20.9705   21.6585   20.4476 H           1 ROC       0.0254
     97 H48        20.2137   21.9373   22.0209 H           1 ROC       0.0254
     98 H49        21.6079   24.7383   22.5563 H           1 ROC       0.0254
     99 H50        19.9295   24.3138   22.9111 H           1 ROC       0.0254
    100 H51        20.3047   25.7185   21.8905 H           1 ROC       0.0254
@<TRIPOS>BOND
     1     2     1   2
     2     2     4   1
     3    13     2  am
     4     4     3  ar
     5     3    12  ar
     6     4     5  ar
     7     5     6  ar
     8     6     7  ar
     9     7     8  ar
    10    12     7  ar
    11     8     9  ar
    12    10     9  ar
    13    11    10  ar
    14    12    11  ar
    15    14    13   1
    16    15    14   1
    17    14    17   1
    18    15    16   2
    19    24    15  am
    20    17    18   1
    21    18    19   2
    22    18    20  am
    23    21    22   1
    24    23    21   1
    25    21    33   1
    26    23    24   1
    27    23    25   1
    28    25    26   1
    29    26    27  ar
    30    26    28  ar
    31    27    29  ar
    32    28    30  ar
    33    29    31  ar
    34    30    31  ar
    35    33    32   1
    36    32    34   1
    37    32    44   1
    38    34    35   1
    39    34    37   1
    40    35    36   2
    41    35    45  am
    42    37    38   1
    43    38    39   1
    44    38    43   1
    45    39    40   1
    46    40    41   1
    47    41    42   1
    48    42    43   1
    49    43    44   1
    50    45    46   1
    51    46    47   1
    52    46    48   1
    53    46    49   1
    54     5    50   1
    55     6    51   1
    56     8    52   1
    57     9    53   1
    58    10    54   1
    59    11    55   1
    60    13    56   1
    61    14    57   1
    62    17    58   1
    63    17    59   1
    64    20    60   1
    65    20    61   1
    66    21    62   1
    67    22    63   1
    68    23    64   1
    69    24    65   1
    70    25    66   1
    71    25    67   1
    72    27    68   1
    73    28    69   1
    74    29    70   1
    75    30    71   1
    76    31    72   1
    77    32    73   1
    78    33    74   1
    79    33    75   1
    80    34    76   1
    81    37    77   1
    82    37    78   1
    83    38    79   1
    84    39    80   1
    85    39    81   1
    86    40    82   1
    87    40    83   1
    88    41    84   1
    89    41    85   1
    90    42    86   1
    91    42    87   1
    92    43    88   1
    93    44    89   1
    94    44    90   1
    95    45    91   1
    96    47    92   1
    97    47    93   1
    98    47    94   1
    99    48    95   1
   100    48    96   1
   101    48    97   1
   102    49    98   1
   103    49    99   1
   104    49   100   1
@<TRIPOS>SUBSTRUCTURE
     1  ROC      2

