@<TRIPOS>MOLECULE
3cyx_ligand_003
   100   104
SMALL
GAST_HUCK
****
This file was generated by PARSER (from files_GN.cpp)

@<TRIPOS>ATOM
      1 O1         22.0054   28.0198   17.3184 O.2         1 ROC      -0.3762
      2 C1         22.7940   27.1883   17.7567 C.2         1 ROC       0.2293
      3 N1         24.9600   26.2182   17.6921 N.ar        1 ROC      -0.2737
      4 C2         23.9789   26.9349   17.0751 C.ar        1 ROC       0.1219
      5 C3         24.2419   27.4095   15.7689 C.ar        1 ROC      -0.0136
      6 C4         25.4851   27.1552   15.1558 C.ar        1 ROC      -0.0314
      7 C5         26.4790   26.4323   15.8492 C.ar        1 ROC       0.0097
      8 C6         27.7574   26.1850   15.3024 C.ar        1 ROC      -0.0444
      9 C7         28.7126   25.4645   16.0436 C.ar        1 ROC      -0.0546
     10 C8         28.3972   24.9724   17.3240 C.ar        1 ROC      -0.0545
     11 C9R        27.1262   25.2131   17.8786 C.ar        1 ROC      -0.0370
     12 C10        26.1737   25.9486   17.1487 C.ar        1 ROC       0.0527
     13 N2         22.5449   26.5632   18.9050 N.am        1 ROC      -0.2600
     14 C11        21.4297   26.7032   19.8083 C.3         1 ROC       0.1473
     15 C12        20.1870   26.3049   19.1495 C.2         1 ROC       0.2045
     16 O2         19.7938   26.9450   18.1803 O.2         1 ROC      -0.3943
     17 C13        21.3837   28.1203   20.4696 C.3         1 ROC       0.0773
     18 C14        20.9105   28.1102   21.8408 C.2         1 ROC       0.1780
     19 O3         19.8229   28.5771   22.1458 O.2         1 ROC      -0.3970
     20 N3         21.6709   27.6257   22.8016 N.am        1 ROC      -0.3007
     21 C15        17.1371   24.5982   19.2075 C.3         1 ROC       0.1194
     22 O4         16.6066   23.4436   19.8588 O.3         1 ROC      -0.3840
     23 C16        18.6324   24.4038   18.7479 C.3         1 ROC       0.0823
     24 N4         19.5482   25.2012   19.5394 N.am        1 ROC      -0.2772
     25 C17        19.1555   22.9228   18.6164 C.3         1 ROC       0.0066
     26 C18        20.0262   22.4137   19.7157 C.ar        1 ROC      -0.0408
     27 C19        19.5133   21.5442   20.7081 C.ar        1 ROC      -0.0603
     28 C20        21.3812   22.8158   19.7938 C.ar        1 ROC      -0.0603
     29 C21        20.3213   21.1352   21.7842 C.ar        1 ROC      -0.0686
     30 C22        22.1889   22.4094   20.8697 C.ar        1 ROC      -0.0686
     31 C23        21.6530   21.5842   21.8732 C.ar        1 ROC      -0.0687
     32 N5         15.5520   24.2549   17.0447 N.4         1 ROC       0.2562
     33 C24        16.1512   25.1466   18.1111 C.3         1 ROC      -0.0008
     34 C25        16.5152   23.3943   16.2594 C.3         1 ROC       0.0688
     35 C26        17.6305   24.1092   15.6302 C.2         1 ROC       0.2251
     36 O5         18.7229   23.5628   15.6249 O.2         1 ROC      -0.3909
     37 C27        15.8115   22.5497   15.1454 C.3         1 ROC       0.0113
     38 C28        14.5997   21.7400   15.6940 C.3         1 ROC      -0.0261
     39 C29        13.8736   20.8964   14.6009 C.3         1 ROC      -0.0494
     40 C30        13.0633   21.7586   13.5979 C.3         1 ROC      -0.0528
     41 C31        12.0857   22.7174   14.3271 C.3         1 ROC      -0.0526
     42 C32        12.7870   23.5675   15.4268 C.3         1 ROC      -0.0451
     43 C33        13.5970   22.6811   16.4278 C.3         1 ROC       0.0024
     44 C34        14.3436   23.4988   17.5315 C.3         1 ROC      -0.0266
     45 N6         17.4260   25.2315   14.9364 N.am        1 ROC      -0.2771
     46 C35        18.3995   26.0191   14.2053 C.3         1 ROC       0.0448
     47 C36        19.1221   25.1810   13.1046 C.3         1 ROC      -0.0396
     48 C37        19.4481   26.6470   15.1751 C.3         1 ROC      -0.0396
     49 C38        17.6174   27.1671   13.4986 C.3         1 ROC      -0.0396
     50 H1         23.5385   27.9427   15.2496 H           1 ROC       0.0729
     51 H2         25.6596   27.5081   14.2088 H           1 ROC       0.0774
     52 H3         28.0000   26.5335   14.3713 H           1 ROC       0.0657
     53 H4         29.6389   25.2942   15.6491 H           1 ROC       0.0652
     54 H5         29.0903   24.4435   17.8554 H           1 ROC       0.0657
     55 H6         26.9027   24.8608   18.8121 H           1 ROC       0.0653
     56 H7         23.2178   25.9231   19.1839 H           1 ROC       0.1882
     57 H8         21.6563   25.9823   20.6025 H           1 ROC       0.0826
     58 H9         20.7547   28.7874   19.8709 H           1 ROC       0.0551
     59 H10        22.3868   28.5543   20.4748 H           1 ROC       0.0551
     60 H11        21.3617   27.6311   23.7220 H           1 ROC       0.1814
     61 H12        22.5571   27.2824   22.5952 H           1 ROC       0.1814
     62 H13        17.1421   25.3609   19.9953 H           1 ROC       0.0672
     63 H14        15.7888   23.7502   20.3064 H           1 ROC       0.2101
     64 H15        18.6906   24.7849   17.7239 H           1 ROC       0.0606
     65 H16        19.8404   24.8097   20.3746 H           1 ROC       0.1857
     66 H17        19.7413   22.8311   17.6953 H           1 ROC       0.0449
     67 H18        18.3202   22.2376   18.4835 H           1 ROC       0.0449
     68 H19        18.5468   21.2140   20.6605 H           1 ROC       0.0557
     69 H20        21.7849   23.4222   19.0738 H           1 ROC       0.0557
     70 H21        19.9399   20.5234   22.5052 H           1 ROC       0.0599
     71 H22        23.1610   22.7182   20.9263 H           1 ROC       0.0599
     72 H23        22.2280   21.3137   22.6653 H           1 ROC       0.0559
     73 H24        15.1658   24.9143   16.3684 H           1 ROC       0.2057
     74 H25        16.6445   25.9782   17.5999 H           1 ROC       0.0841
     75 H26        15.3204   25.6251   18.6366 H           1 ROC       0.0841
     76 H27        16.9289   22.6584   16.9632 H           1 ROC       0.1100
     77 H28        16.5268   21.8414   14.7128 H           1 ROC       0.0348
     78 H29        15.4778   23.2171   14.3485 H           1 ROC       0.0348
     79 H30        14.9864   21.0244   16.4278 H           1 ROC       0.0309
     80 H31        13.1818   20.2024   15.0915 H           1 ROC       0.0268
     81 H32        14.6019   20.2942   14.0515 H           1 ROC       0.0268
     82 H33        12.4906   21.1012   12.9361 H           1 ROC       0.0265
     83 H34        13.7435   22.3420   12.9700 H           1 ROC       0.0265
     84 H35        11.2827   22.1301   14.7858 H           1 ROC       0.0265
     85 H36        11.6284   23.3827   13.5871 H           1 ROC       0.0265
     86 H37        12.0242   24.1215   15.9807 H           1 ROC       0.0270
     87 H38        13.4411   24.3007   14.9469 H           1 ROC       0.0270
     88 H39        12.8642   22.0496   16.9467 H           1 ROC       0.0355
     89 H40        13.6249   24.1921   17.9724 H           1 ROC       0.0818
     90 H41        14.6433   22.7957   18.3072 H           1 ROC       0.0818
     91 H42        16.5167   25.5748   14.9424 H           1 ROC       0.1859
     92 H43        19.7209   25.8259   12.4575 H           1 ROC       0.0254
     93 H44        18.3924   24.6618   12.4807 H           1 ROC       0.0254
     94 H45        19.7953   24.4396   13.5359 H           1 ROC       0.0254
     95 H46        20.1752   27.2533   14.6275 H           1 ROC       0.0254
     96 H47        19.9981   25.8764   15.7164 H           1 ROC       0.0254
     97 H48        18.9489   27.2863   15.9046 H           1 ROC       0.0254
     98 H49        18.2939   27.8135   12.9319 H           1 ROC       0.0254
     99 H50        17.0961   27.7883   14.2265 H           1 ROC       0.0254
    100 H51        16.8797   26.7591   12.8054 H           1 ROC       0.0254
@<TRIPOS>BOND
     1     2     1   2
     2     2     4   1
     3    13     2  am
     4     4     3  ar
     5     3    12  ar
     6     4     5  ar
     7     5     6  ar
     8     6     7  ar
     9     7     8  ar
    10    12     7  ar
    11     8     9  ar
    12    10     9  ar
    13    11    10  ar
    14    12    11  ar
    15    14    13   1
    16    15    14   1
    17    14    17   1
    18    15    16   2
    19    24    15  am
    20    17    18   1
    21    18    19   2
    22    18    20  am
    23    21    22   1
    24    23    21   1
    25    21    33   1
    26    23    24   1
    27    23    25   1
    28    25    26   1
    29    26    27  ar
    30    26    28  ar
    31    27    29  ar
    32    28    30  ar
    33    29    31  ar
    34    30    31  ar
    35    33    32   1
    36    32    34   1
    37    32    44   1
    38    34    35   1
    39    34    37   1
    40    35    36   2
    41    35    45  am
    42    37    38   1
    43    38    39   1
    44    38    43   1
    45    39    40   1
    46    40    41   1
    47    41    42   1
    48    42    43   1
    49    43    44   1
    50    45    46   1
    51    46    47   1
    52    46    48   1
    53    46    49   1
    54     5    50   1
    55     6    51   1
    56     8    52   1
    57     9    53   1
    58    10    54   1
    59    11    55   1
    60    13    56   1
    61    14    57   1
    62    17    58   1
    63    17    59   1
    64    20    60   1
    65    20    61   1
    66    21    62   1
    67    22    63   1
    68    23    64   1
    69    24    65   1
    70    25    66   1
    71    25    67   1
    72    27    68   1
    73    28    69   1
    74    29    70   1
    75    30    71   1
    76    31    72   1
    77    32    73   1
    78    33    74   1
    79    33    75   1
    80    34    76   1
    81    37    77   1
    82    37    78   1
    83    38    79   1
    84    39    80   1
    85    39    81   1
    86    40    82   1
    87    40    83   1
    88    41    84   1
    89    41    85   1
    90    42    86   1
    91    42    87   1
    92    43    88   1
    93    44    89   1
    94    44    90   1
    95    45    91   1
    96    47    92   1
    97    47    93   1
    98    47    94   1
    99    48    95   1
   100    48    96   1
   101    48    97   1
   102    49    98   1
   103    49    99   1
   104    49   100   1
@<TRIPOS>SUBSTRUCTURE
     1  ROC      2

