@<TRIPOS>MOLECULE
3cyx_ligand_033
   100   104
SMALL
GAST_HUCK
****
This file was generated by PARSER (from files_GN.cpp)

@<TRIPOS>ATOM
      1 O1         18.4827   21.5991   18.7838 O.2         1 ROC      -0.3762
      2 C1         17.5610   21.5787   19.5899 C.2         1 ROC       0.2293
      3 N1         15.8082   20.3456   20.6308 N.ar        1 ROC      -0.2737
      4 C2         16.6784   20.5012   19.5930 C.ar        1 ROC       0.1219
      5 C3         16.6822   19.5033   18.5868 C.ar        1 ROC      -0.0136
      6 C4         15.8274   18.3907   18.6951 C.ar        1 ROC      -0.0314
      7 C5         14.9566   18.2666   19.7940 C.ar        1 ROC       0.0097
      8 C6         14.0945   17.1577   19.9495 C.ar        1 ROC      -0.0444
      9 C7         13.2364   17.0801   21.0615 C.ar        1 ROC      -0.0546
     10 C8         13.2333   18.1080   22.0225 C.ar        1 ROC      -0.0545
     11 C9R        14.0906   19.2153   21.8819 C.ar        1 ROC      -0.0370
     12 C10        14.9574   19.2956   20.7727 C.ar        1 ROC       0.0527
     13 N2         17.4197   22.5687   20.4592 N.am        1 ROC      -0.2600
     14 C11        18.2684   23.7106   20.6904 C.3         1 ROC       0.1473
     15 C12        18.7243   24.3682   19.4628 C.2         1 ROC       0.2045
     16 O2         17.9747   25.1863   18.9338 O.2         1 ROC      -0.3943
     17 C13        19.3689   23.5060   21.7873 C.3         1 ROC       0.0773
     18 C14        20.1887   22.3090   21.7176 C.2         1 ROC       0.1780
     19 O3         19.6720   21.2125   21.5455 O.2         1 ROC      -0.3970
     20 N3         21.4762   22.3363   21.9891 N.am        1 ROC      -0.3007
     21 C15        21.0223   26.2796   18.4310 C.3         1 ROC       0.1194
     22 O4         20.1596   27.3411   18.0101 O.3         1 ROC      -0.3840
     23 C16        20.5688   24.8715   17.8747 C.3         1 ROC       0.0823
     24 N4         19.9222   24.1274   18.9342 N.am        1 ROC      -0.2772
     25 C17        19.7310   24.7446   16.5436 C.3         1 ROC       0.0066
     26 C18        19.7838   25.8632   15.5581 C.ar        1 ROC      -0.0408
     27 C19        18.5851   26.4983   15.1441 C.ar        1 ROC      -0.0603
     28 C20        20.9972   26.2681   14.9557 C.ar        1 ROC      -0.0603
     29 C21        18.6046   27.5326   14.1914 C.ar        1 ROC      -0.0686
     30 C22        21.0217   27.3091   14.0048 C.ar        1 ROC      -0.0686
     31 C23        19.8208   27.9440   13.6263 C.ar        1 ROC      -0.0687
     32 N5         23.6110   25.7290   18.4233 N.4         1 ROC       0.2562
     33 C24        22.4942   26.7045   18.1338 C.3         1 ROC      -0.0008
     34 C25        24.9929   26.3465   18.3213 C.3         1 ROC       0.0688
     35 C26        25.2468   27.0032   17.0341 C.2         1 ROC       0.2251
     36 O5         25.2933   26.2986   16.0330 O.2         1 ROC      -0.3909
     37 C27        26.1450   25.3139   18.5678 C.3         1 ROC       0.0113
     38 C28        25.9488   24.4935   19.8773 C.3         1 ROC      -0.0261
     39 C29        27.0249   23.3812   20.0827 C.3         1 ROC      -0.0494
     40 C30        26.8574   22.1660   19.1307 C.3         1 ROC      -0.0528
     41 C31        25.4150   21.5976   19.1570 C.3         1 ROC      -0.0526
     42 C32        24.3379   22.6931   18.9536 C.3         1 ROC      -0.0451
     43 C33        24.5127   23.8854   19.9449 C.3         1 ROC       0.0024
     44 C34        23.4480   25.0007   19.7280 C.3         1 ROC      -0.0266
     45 N6         25.4391   28.3181   16.9992 N.am        1 ROC      -0.2771
     46 C35        25.7728   29.2207   15.9207 C.3         1 ROC       0.0448
     47 C36        24.8014   30.4342   16.0502 C.3         1 ROC      -0.0396
     48 C37        25.6950   28.6497   14.4665 C.3         1 ROC      -0.0396
     49 C38        27.2314   29.6936   16.1986 C.3         1 ROC      -0.0396
     50 H1         17.3026   19.5698   17.7760 H           1 ROC       0.0729
     51 H2         15.8478   17.6698   17.9684 H           1 ROC       0.0774
     52 H3         14.0821   16.4075   19.2531 H           1 ROC       0.0657
     53 H4         12.6115   16.2779   21.1673 H           1 ROC       0.0652
     54 H5         12.5996   18.0504   22.8242 H           1 ROC       0.0657
     55 H6         14.0863   19.9537   22.5895 H           1 ROC       0.0653
     56 H7         16.6395   22.5101   21.0388 H           1 ROC       0.1882
     57 H8         17.5796   24.4206   21.1647 H           1 ROC       0.0826
     58 H9         18.8756   23.4796   22.7628 H           1 ROC       0.0551
     59 H10        20.0082   24.3974   21.8050 H           1 ROC       0.0551
     60 H11        21.9787   21.5043   22.0165 H           1 ROC       0.1814
     61 H12        21.9160   23.1815   22.1949 H           1 ROC       0.1814
     62 H13        20.9410   26.2755   19.5216 H           1 ROC       0.0672
     63 H14        19.3138   27.2063   18.4878 H           1 ROC       0.2101
     64 H15        21.4828   24.3091   17.6875 H           1 ROC       0.0606
     65 H16        20.4519   23.4270   19.3495 H           1 ROC       0.1857
     66 H17        18.6841   24.5573   16.8046 H           1 ROC       0.0449
     67 H18        20.0606   23.8429   16.0177 H           1 ROC       0.0449
     68 H19        17.6844   26.2109   15.5306 H           1 ROC       0.0557
     69 H20        21.8768   25.8122   15.2038 H           1 ROC       0.0557
     70 H21        17.7252   27.9753   13.8993 H           1 ROC       0.0599
     71 H22        21.9032   27.5980   13.5730 H           1 ROC       0.0599
     72 H23        19.8328   28.6965   12.9354 H           1 ROC       0.0559
     73 H24        23.5558   25.0231   17.6846 H           1 ROC       0.2057
     74 H25        22.6858   27.6260   18.6897 H           1 ROC       0.0841
     75 H26        22.5322   26.9617   17.0741 H           1 ROC       0.0841
     76 H27        25.0731   27.0927   19.1230 H           1 ROC       0.1100
     77 H28        27.0992   25.8472   18.6326 H           1 ROC       0.0348
     78 H29        26.2061   24.6325   17.7200 H           1 ROC       0.0348
     79 H30        26.0561   25.1964   20.7129 H           1 ROC       0.0309
     80 H31        26.9555   23.0201   21.1139 H           1 ROC       0.0268
     81 H32        28.0245   23.8052   19.9577 H           1 ROC       0.0268
     82 H33        27.5526   21.3807   19.4299 H           1 ROC       0.0265
     83 H34        27.1117   22.4588   18.1130 H           1 ROC       0.0265
     84 H35        25.2435   21.1036   20.1166 H           1 ROC       0.0265
     85 H36        25.3092   20.8436   18.3717 H           1 ROC       0.0265
     86 H37        23.3512   22.2431   19.0941 H           1 ROC       0.0270
     87 H38        24.3885   23.0485   17.9237 H           1 ROC       0.0270
     88 H39        24.3667   23.4900   20.9573 H           1 ROC       0.0355
     89 H40        22.4683   24.5126   19.7687 H           1 ROC       0.0818
     90 H41        23.5051   25.7150   20.5619 H           1 ROC       0.0818
     91 H42        25.3635   28.7568   17.8629 H           1 ROC       0.1859
     92 H43        25.0112   31.1889   15.2873 H           1 ROC       0.0254
     93 H44        24.8960   30.9091   17.0311 H           1 ROC       0.0254
     94 H45        23.7651   30.1068   15.9374 H           1 ROC       0.0254
     95 H46        25.9133   29.4282   13.7300 H           1 ROC       0.0254
     96 H47        24.6970   28.2588   14.2586 H           1 ROC       0.0254
     97 H48        26.4181   27.8423   14.3268 H           1 ROC       0.0254
     98 H49        27.5504   30.4369   15.4637 H           1 ROC       0.0254
     99 H50        27.9196   28.8450   16.1515 H           1 ROC       0.0254
    100 H51        27.3149   30.1404   17.1937 H           1 ROC       0.0254
@<TRIPOS>BOND
     1     2     1   2
     2     2     4   1
     3    13     2  am
     4     4     3  ar
     5     3    12  ar
     6     4     5  ar
     7     5     6  ar
     8     6     7  ar
     9     7     8  ar
    10    12     7  ar
    11     8     9  ar
    12    10     9  ar
    13    11    10  ar
    14    12    11  ar
    15    14    13   1
    16    15    14   1
    17    14    17   1
    18    15    16   2
    19    24    15  am
    20    17    18   1
    21    18    19   2
    22    18    20  am
    23    21    22   1
    24    23    21   1
    25    21    33   1
    26    23    24   1
    27    23    25   1
    28    25    26   1
    29    26    27  ar
    30    26    28  ar
    31    27    29  ar
    32    28    30  ar
    33    29    31  ar
    34    30    31  ar
    35    33    32   1
    36    32    34   1
    37    32    44   1
    38    34    35   1
    39    34    37   1
    40    35    36   2
    41    35    45  am
    42    37    38   1
    43    38    39   1
    44    38    43   1
    45    39    40   1
    46    40    41   1
    47    41    42   1
    48    42    43   1
    49    43    44   1
    50    45    46   1
    51    46    47   1
    52    46    48   1
    53    46    49   1
    54     5    50   1
    55     6    51   1
    56     8    52   1
    57     9    53   1
    58    10    54   1
    59    11    55   1
    60    13    56   1
    61    14    57   1
    62    17    58   1
    63    17    59   1
    64    20    60   1
    65    20    61   1
    66    21    62   1
    67    22    63   1
    68    23    64   1
    69    24    65   1
    70    25    66   1
    71    25    67   1
    72    27    68   1
    73    28    69   1
    74    29    70   1
    75    30    71   1
    76    31    72   1
    77    32    73   1
    78    33    74   1
    79    33    75   1
    80    34    76   1
    81    37    77   1
    82    37    78   1
    83    38    79   1
    84    39    80   1
    85    39    81   1
    86    40    82   1
    87    40    83   1
    88    41    84   1
    89    41    85   1
    90    42    86   1
    91    42    87   1
    92    43    88   1
    93    44    89   1
    94    44    90   1
    95    45    91   1
    96    47    92   1
    97    47    93   1
    98    47    94   1
    99    48    95   1
   100    48    96   1
   101    48    97   1
   102    49    98   1
   103    49    99   1
   104    49   100   1
@<TRIPOS>SUBSTRUCTURE
     1  ROC      2

