@<TRIPOS>MOLECULE
3cyx_ligand_020
   100   104
SMALL
GAST_HUCK
****
This file was generated by PARSER (from files_GN.cpp)

@<TRIPOS>ATOM
      1 O1         13.7427   21.9877   15.3587 O.2         1 ROC      -0.3762
      2 C1         14.3078   21.1102   14.7189 C.2         1 ROC       0.2293
      3 N1         14.2589   18.9337   13.7477 N.ar        1 ROC      -0.2737
      4 C2         13.6843   19.8768   14.5471 C.ar        1 ROC       0.1219
      5 C3         12.4607   19.5468   15.1816 C.ar        1 ROC      -0.0136
      6 C4         11.8856   18.2774   14.9876 C.ar        1 ROC      -0.0314
      7 C5         12.5216   17.3311   14.1625 C.ar        1 ROC       0.0097
      8 C6         11.9951   16.0357   13.9623 C.ar        1 ROC      -0.0444
      9 C7         12.6704   15.1200   13.1327 C.ar        1 ROC      -0.0546
     10 C8         13.8669   15.4933   12.4954 C.ar        1 ROC      -0.0545
     11 C9R        14.4002   16.7799   12.6876 C.ar        1 ROC      -0.0370
     12 C10        13.7377   17.6988   13.5260 C.ar        1 ROC       0.0527
     13 N2         15.5087   21.3482   14.2010 N.am        1 ROC      -0.2600
     14 C11        16.3132   22.5380   14.3283 C.3         1 ROC       0.1473
     15 C12        16.8406   22.6582   15.6923 C.2         1 ROC       0.2045
     16 O2         17.6194   21.7769   16.0634 O.2         1 ROC      -0.3943
     17 C13        15.5865   23.7832   13.7117 C.3         1 ROC       0.0773
     18 C14        16.4577   24.9299   13.5131 C.2         1 ROC       0.1780
     19 O3         17.3189   24.8960   12.6463 O.2         1 ROC      -0.3970
     20 N3         16.3352   26.0300   14.2229 N.am        1 ROC      -0.3007
     21 C15        18.1166   23.2600   18.5032 C.3         1 ROC       0.1194
     22 O4         18.2204   23.7347   19.8545 O.3         1 ROC      -0.3840
     23 C16        16.9635   24.0613   17.8089 C.3         1 ROC       0.0823
     24 N4         16.5181   23.6709   16.4941 N.am        1 ROC      -0.2772
     25 C17        15.6821   24.2633   18.6908 C.3         1 ROC       0.0066
     26 C18        14.9330   23.0230   19.0689 C.ar        1 ROC      -0.0408
     27 C19        15.3130   22.2514   20.1965 C.ar        1 ROC      -0.0603
     28 C20        13.7833   22.6274   18.3473 C.ar        1 ROC      -0.0603
     29 C21        14.5943   21.0967   20.5589 C.ar        1 ROC      -0.0686
     30 C22        13.0719   21.4643   18.6976 C.ar        1 ROC      -0.0686
     31 C23        13.4826   20.6937   19.8020 C.ar        1 ROC      -0.0687
     32 N5         20.6558   24.1887   18.2740 N.4         1 ROC       0.2562
     33 C24        19.5186   23.3105   17.7856 C.3         1 ROC      -0.0008
     34 C25        20.3747   25.6764   18.2438 C.3         1 ROC       0.0688
     35 C26        20.0720   26.1564   16.8921 C.2         1 ROC       0.2251
     36 O5         18.9998   26.7165   16.6921 O.2         1 ROC      -0.3909
     37 C27        21.5661   26.5228   18.7943 C.3         1 ROC       0.0113
     38 C28        22.0297   26.0415   20.1977 C.3         1 ROC      -0.0261
     39 C29        23.1764   26.9181   20.7907 C.3         1 ROC      -0.0494
     40 C30        24.5596   26.6562   20.1395 C.3         1 ROC      -0.0528
     41 C31        24.9150   25.1471   20.1450 C.3         1 ROC      -0.0526
     42 C32        23.8045   24.2860   19.4815 C.3         1 ROC      -0.0451
     43 C33        22.4273   24.5336   20.1642 C.3         1 ROC       0.0024
     44 C34        21.2744   23.6884   19.5569 C.3         1 ROC      -0.0266
     45 N6         20.9528   25.9676   15.9148 N.am        1 ROC      -0.2771
     46 C35        20.9111   26.2932   14.5063 C.3         1 ROC       0.0448
     47 C36        20.4733   24.9939   13.7670 C.3         1 ROC      -0.0396
     48 C37        22.3714   26.6605   14.1048 C.3         1 ROC      -0.0396
     49 C38        19.9887   27.4894   14.1039 C.3         1 ROC      -0.0396
     50 H1         11.9809   20.2141   15.7896 H           1 ROC       0.0729
     51 H2         11.0061   18.0522   15.4606 H           1 ROC       0.0774
     52 H3         11.1220   15.7520   14.4155 H           1 ROC       0.0657
     53 H4         12.2841   14.1849   12.9905 H           1 ROC       0.0652
     54 H5         14.3493   14.8270   11.8889 H           1 ROC       0.0657
     55 H6         15.2691   17.0440   12.2198 H           1 ROC       0.0653
     56 H7         15.8987   20.6297   13.6805 H           1 ROC       0.1882
     57 H8         17.1748   22.3591   13.6805 H           1 ROC       0.0826
     58 H9         14.7400   24.0673   14.3425 H           1 ROC       0.0551
     59 H10        15.1719   23.5044   12.7383 H           1 ROC       0.0551
     60 H11        16.9260   26.7809   14.0588 H           1 ROC       0.1814
     61 H12        15.6467   26.1011   14.9041 H           1 ROC       0.1814
     62 H13        17.7881   22.2167   18.5609 H           1 ROC       0.0672
     63 H14        18.2873   22.9049   20.4055 H           1 ROC       0.2101
     64 H15        17.3688   25.0664   17.6683 H           1 ROC       0.0606
     65 H16        15.8575   24.2820   16.1217 H           1 ROC       0.1857
     66 H17        15.0072   24.9441   18.1562 H           1 ROC       0.0449
     67 H18        15.9483   24.8016   19.6064 H           1 ROC       0.0449
     68 H19        16.1069   22.5349   20.7745 H           1 ROC       0.0557
     69 H20        13.4537   23.1867   17.5580 H           1 ROC       0.0557
     70 H21        14.8812   20.5529   21.3749 H           1 ROC       0.0599
     71 H22        12.2511   21.1832   18.1609 H           1 ROC       0.0599
     72 H23        12.9599   19.8548   20.0633 H           1 ROC       0.0559
     73 H24        21.4014   24.0513   17.5801 H           1 ROC       0.2057
     74 H25        19.3576   23.5669   16.7399 H           1 ROC       0.0841
     75 H26        19.8965   22.2886   17.7538 H           1 ROC       0.0841
     76 H27        19.5158   25.8711   18.8981 H           1 ROC       0.1100
     77 H28        21.2576   27.5717   18.8631 H           1 ROC       0.0348
     78 H29        22.4110   26.4739   18.1038 H           1 ROC       0.0348
     79 H30        21.1695   26.1484   20.8705 H           1 ROC       0.0309
     80 H31        23.2571   26.7075   21.8635 H           1 ROC       0.0268
     81 H32        22.9277   27.9796   20.6891 H           1 ROC       0.0268
     82 H33        25.3265   27.2035   20.6925 H           1 ROC       0.0265
     83 H34        24.5633   27.0267   19.1129 H           1 ROC       0.0265
     84 H35        25.0582   24.8170   21.1818 H           1 ROC       0.0265
     85 H36        25.8616   24.9931   19.6154 H           1 ROC       0.0265
     86 H37        24.0812   23.2311   19.5806 H           1 ROC       0.0270
     87 H38        23.7540   24.5146   18.4147 H           1 ROC       0.0270
     88 H39        22.5428   24.2024   21.2019 H           1 ROC       0.0355
     89 H40        21.6360   22.6723   19.3925 H           1 ROC       0.0818
     90 H41        20.5223   23.6132   20.3435 H           1 ROC       0.0818
     91 H42        21.7379   25.4573   16.1755 H           1 ROC       0.1859
     92 H43        20.3896   25.1641   12.6912 H           1 ROC       0.0254
     93 H44        19.5045   24.6569   14.1411 H           1 ROC       0.0254
     94 H45        21.1913   24.1858   13.9325 H           1 ROC       0.0254
     95 H46        22.4326   26.8923   13.0400 H           1 ROC       0.0254
     96 H47        23.0557   25.8344   14.3137 H           1 ROC       0.0254
     97 H48        22.7132   27.5341   14.6637 H           1 ROC       0.0254
     98 H49        20.1324   27.7604   13.0558 H           1 ROC       0.0254
     99 H50        20.2183   28.3619   14.7177 H           1 ROC       0.0254
    100 H51        18.9366   27.2394   14.2326 H           1 ROC       0.0254
@<TRIPOS>BOND
     1     2     1   2
     2     2     4   1
     3    13     2  am
     4     4     3  ar
     5     3    12  ar
     6     4     5  ar
     7     5     6  ar
     8     6     7  ar
     9     7     8  ar
    10    12     7  ar
    11     8     9  ar
    12    10     9  ar
    13    11    10  ar
    14    12    11  ar
    15    14    13   1
    16    15    14   1
    17    14    17   1
    18    15    16   2
    19    24    15  am
    20    17    18   1
    21    18    19   2
    22    18    20  am
    23    21    22   1
    24    23    21   1
    25    21    33   1
    26    23    24   1
    27    23    25   1
    28    25    26   1
    29    26    27  ar
    30    26    28  ar
    31    27    29  ar
    32    28    30  ar
    33    29    31  ar
    34    30    31  ar
    35    33    32   1
    36    32    34   1
    37    32    44   1
    38    34    35   1
    39    34    37   1
    40    35    36   2
    41    35    45  am
    42    37    38   1
    43    38    39   1
    44    38    43   1
    45    39    40   1
    46    40    41   1
    47    41    42   1
    48    42    43   1
    49    43    44   1
    50    45    46   1
    51    46    47   1
    52    46    48   1
    53    46    49   1
    54     5    50   1
    55     6    51   1
    56     8    52   1
    57     9    53   1
    58    10    54   1
    59    11    55   1
    60    13    56   1
    61    14    57   1
    62    17    58   1
    63    17    59   1
    64    20    60   1
    65    20    61   1
    66    21    62   1
    67    22    63   1
    68    23    64   1
    69    24    65   1
    70    25    66   1
    71    25    67   1
    72    27    68   1
    73    28    69   1
    74    29    70   1
    75    30    71   1
    76    31    72   1
    77    32    73   1
    78    33    74   1
    79    33    75   1
    80    34    76   1
    81    37    77   1
    82    37    78   1
    83    38    79   1
    84    39    80   1
    85    39    81   1
    86    40    82   1
    87    40    83   1
    88    41    84   1
    89    41    85   1
    90    42    86   1
    91    42    87   1
    92    43    88   1
    93    44    89   1
    94    44    90   1
    95    45    91   1
    96    47    92   1
    97    47    93   1
    98    47    94   1
    99    48    95   1
   100    48    96   1
   101    48    97   1
   102    49    98   1
   103    49    99   1
   104    49   100   1
@<TRIPOS>SUBSTRUCTURE
     1  ROC      2

