@<TRIPOS>MOLECULE
3cyx_ligand_019
   100   104
SMALL
GAST_HUCK
****
This file was generated by PARSER (from files_GN.cpp)

@<TRIPOS>ATOM
      1 O1         21.8821   27.9394   18.0186 O.2         1 ROC      -0.3762
      2 C1         22.2253   26.8040   17.7080 C.2         1 ROC       0.2293
      3 N1         23.8017   25.0592   17.9620 N.ar        1 ROC      -0.2737
      4 C2         23.5405   26.3910   17.8746 C.ar        1 ROC       0.1219
      5 C3         24.6356   27.2849   17.9793 C.ar        1 ROC      -0.0136
      6 C4         25.9367   26.7783   18.1576 C.ar        1 ROC      -0.0314
      7 C5         26.1577   25.3876   18.2347 C.ar        1 ROC       0.0097
      8 C6         27.4428   24.8309   18.4203 C.ar        1 ROC      -0.0444
      9 C7         27.6048   23.4354   18.5062 C.ar        1 ROC      -0.0546
     10 C8         26.4833   22.5856   18.4189 C.ar        1 ROC      -0.0545
     11 C9R        25.2025   23.1273   18.2315 C.ar        1 ROC      -0.0370
     12 C10        25.0348   24.5219   18.1421 C.ar        1 ROC       0.0527
     13 N2         21.3447   25.9345   17.2362 N.am        1 ROC      -0.2600
     14 C11        19.9154   26.0267   17.1977 C.3         1 ROC       0.1473
     15 C12        19.4484   24.8442   17.9153 C.2         1 ROC       0.2045
     16 O2         19.5958   23.7311   17.4212 O.2         1 ROC      -0.3943
     17 C13        19.3922   26.0901   15.7301 C.3         1 ROC       0.0773
     18 C14        19.3395   27.4366   15.1813 C.2         1 ROC       0.1780
     19 O3         20.1311   28.3006   15.5368 O.2         1 ROC      -0.3970
     20 N3         18.4577   27.7672   14.2616 N.am        1 ROC      -0.3007
     21 C15        17.4061   23.2719   20.0125 C.3         1 ROC       0.1194
     22 O4         16.8122   23.0849   21.2989 O.3         1 ROC      -0.3840
     23 C16        18.8248   23.9410   20.1433 C.3         1 ROC       0.0823
     24 N4         18.9768   24.9728   19.1496 N.am        1 ROC      -0.2772
     25 C17        19.1429   24.5923   21.5287 C.3         1 ROC       0.0066
     26 C18        20.4842   25.2503   21.5623 C.ar        1 ROC      -0.0408
     27 C19        20.6190   26.6512   21.4231 C.ar        1 ROC      -0.0603
     28 C20        21.6597   24.4662   21.6895 C.ar        1 ROC      -0.0603
     29 C21        21.8918   27.2539   21.3858 C.ar        1 ROC      -0.0686
     30 C22        22.9299   25.0679   21.6575 C.ar        1 ROC      -0.0686
     31 C23        23.0469   26.4582   21.5049 C.ar        1 ROC      -0.0687
     32 N5         16.2226   21.0749   19.1514 N.4         1 ROC       0.2562
     33 C24        17.4722   21.9304   19.1975 C.3         1 ROC      -0.0008
     34 C25        15.9451   20.4208   17.8076 C.3         1 ROC       0.0688
     35 C26        15.9118   21.3509   16.6744 C.2         1 ROC       0.2251
     36 O5         16.8383   21.3086   15.8712 O.2         1 ROC      -0.3909
     37 C27        14.6105   19.6038   17.8308 C.3         1 ROC       0.0113
     38 C28        14.5913   18.5396   18.9656 C.3         1 ROC      -0.0261
     39 C29        13.2527   17.7389   19.0489 C.3         1 ROC      -0.0494
     40 C30        12.0819   18.5412   19.6754 C.3         1 ROC      -0.0528
     41 C31        12.4737   19.1528   21.0432 C.3         1 ROC      -0.0526
     42 C32        13.7676   20.0016   20.9513 C.3         1 ROC      -0.0451
     43 C33        14.9499   19.1793   20.3473 C.3         1 ROC       0.0024
     44 C34        16.2504   20.0214   20.2341 C.3         1 ROC      -0.0266
     45 N6         14.9186   22.2222   16.5318 N.am        1 ROC      -0.2771
     46 C35        14.7277   23.2170   15.4967 C.3         1 ROC       0.0448
     47 C36        15.8176   24.3227   15.5996 C.3         1 ROC      -0.0396
     48 C37        13.3236   23.8519   15.7470 C.3         1 ROC      -0.0396
     49 C38        14.7270   22.5749   14.0707 C.3         1 ROC      -0.0396
     50 H1         24.4940   28.2947   17.9137 H           1 ROC       0.0729
     51 H2         26.7206   27.4369   18.2221 H           1 ROC       0.0774
     52 H3         28.2678   25.4354   18.4922 H           1 ROC       0.0657
     53 H4         28.5352   23.0353   18.6383 H           1 ROC       0.0652
     54 H5         26.6048   21.5744   18.4884 H           1 ROC       0.0657
     55 H6         24.3916   22.5078   18.1755 H           1 ROC       0.0653
     56 H7         21.7090   25.0849   16.9457 H           1 ROC       0.1882
     57 H8         19.5657   26.9288   17.7171 H           1 ROC       0.0826
     58 H9         18.3858   25.6599   15.6934 H           1 ROC       0.0551
     59 H10        20.0239   25.4804   15.0821 H           1 ROC       0.0551
     60 H11        18.4100   28.6830   13.9283 H           1 ROC       0.1814
     61 H12        17.8319   27.1044   13.9162 H           1 ROC       0.1814
     62 H13        16.7405   23.9581   19.4727 H           1 ROC       0.0672
     63 H14        15.9611   23.5829   21.2678 H           1 ROC       0.2101
     64 H15        19.5952   23.1702   19.9997 H           1 ROC       0.0606
     65 H16        18.8896   25.8798   19.4789 H           1 ROC       0.1857
     66 H17        19.1199   23.8332   22.3147 H           1 ROC       0.0449
     67 H18        18.3532   25.3126   21.7618 H           1 ROC       0.0449
     68 H19        19.7926   27.2468   21.3249 H           1 ROC       0.0557
     69 H20        21.5925   23.4550   21.7989 H           1 ROC       0.0557
     70 H21        21.9777   28.2650   21.2659 H           1 ROC       0.0599
     71 H22        23.7690   24.4922   21.7512 H           1 ROC       0.0599
     72 H23        23.9746   26.8980   21.4733 H           1 ROC       0.0559
     73 H24        15.4274   21.6880   19.3392 H           1 ROC       0.2057
     74 H25        18.3004   21.3199   19.5704 H           1 ROC       0.0841
     75 H26        17.7646   22.2332   18.1901 H           1 ROC       0.0841
     76 H27        16.7497   19.6944   17.6274 H           1 ROC       0.1100
     77 H28        14.4777   19.0927   16.8747 H           1 ROC       0.0348
     78 H29        13.7651   20.2816   17.9589 H           1 ROC       0.0348
     79 H30        15.3769   17.8100   18.7271 H           1 ROC       0.0309
     80 H31        13.4183   16.8406   19.6533 H           1 ROC       0.0268
     81 H32        12.9618   17.3981   18.0513 H           1 ROC       0.0268
     82 H33        11.2243   17.8786   19.8130 H           1 ROC       0.0265
     83 H34        11.7783   19.3405   18.9961 H           1 ROC       0.0265
     84 H35        12.6171   18.3496   21.7728 H           1 ROC       0.0265
     85 H36        11.6600   19.7856   21.4012 H           1 ROC       0.0265
     86 H37        14.0356   20.3423   21.9571 H           1 ROC       0.0270
     87 H38        13.5719   20.8879   20.3399 H           1 ROC       0.0270
     88 H39        15.1586   18.3635   21.0518 H           1 ROC       0.0355
     89 H40        16.4307   20.4593   21.2142 H           1 ROC       0.0818
     90 H41        17.0808   19.3342   20.0449 H           1 ROC       0.0818
     91 H42        14.2356   22.1937   17.2215 H           1 ROC       0.1859
     92 H43        15.6330   25.1214   14.8788 H           1 ROC       0.0254
     93 H44        16.8101   23.9172   15.3965 H           1 ROC       0.0254
     94 H45        15.8276   24.7571   16.6018 H           1 ROC       0.0254
     95 H46        13.1089   24.6250   15.0072 H           1 ROC       0.0254
     96 H47        13.2757   24.3045   16.7392 H           1 ROC       0.0254
     97 H48        12.5414   23.0952   15.6826 H           1 ROC       0.0254
     98 H49        14.4602   23.3152   13.3136 H           1 ROC       0.0254
     99 H50        14.0064   21.7573   14.0156 H           1 ROC       0.0254
    100 H51        15.7100   22.1803   13.8084 H           1 ROC       0.0254
@<TRIPOS>BOND
     1     2     1   2
     2     2     4   1
     3    13     2  am
     4     4     3  ar
     5     3    12  ar
     6     4     5  ar
     7     5     6  ar
     8     6     7  ar
     9     7     8  ar
    10    12     7  ar
    11     8     9  ar
    12    10     9  ar
    13    11    10  ar
    14    12    11  ar
    15    14    13   1
    16    15    14   1
    17    14    17   1
    18    15    16   2
    19    24    15  am
    20    17    18   1
    21    18    19   2
    22    18    20  am
    23    21    22   1
    24    23    21   1
    25    21    33   1
    26    23    24   1
    27    23    25   1
    28    25    26   1
    29    26    27  ar
    30    26    28  ar
    31    27    29  ar
    32    28    30  ar
    33    29    31  ar
    34    30    31  ar
    35    33    32   1
    36    32    34   1
    37    32    44   1
    38    34    35   1
    39    34    37   1
    40    35    36   2
    41    35    45  am
    42    37    38   1
    43    38    39   1
    44    38    43   1
    45    39    40   1
    46    40    41   1
    47    41    42   1
    48    42    43   1
    49    43    44   1
    50    45    46   1
    51    46    47   1
    52    46    48   1
    53    46    49   1
    54     5    50   1
    55     6    51   1
    56     8    52   1
    57     9    53   1
    58    10    54   1
    59    11    55   1
    60    13    56   1
    61    14    57   1
    62    17    58   1
    63    17    59   1
    64    20    60   1
    65    20    61   1
    66    21    62   1
    67    22    63   1
    68    23    64   1
    69    24    65   1
    70    25    66   1
    71    25    67   1
    72    27    68   1
    73    28    69   1
    74    29    70   1
    75    30    71   1
    76    31    72   1
    77    32    73   1
    78    33    74   1
    79    33    75   1
    80    34    76   1
    81    37    77   1
    82    37    78   1
    83    38    79   1
    84    39    80   1
    85    39    81   1
    86    40    82   1
    87    40    83   1
    88    41    84   1
    89    41    85   1
    90    42    86   1
    91    42    87   1
    92    43    88   1
    93    44    89   1
    94    44    90   1
    95    45    91   1
    96    47    92   1
    97    47    93   1
    98    47    94   1
    99    48    95   1
   100    48    96   1
   101    48    97   1
   102    49    98   1
   103    49    99   1
   104    49   100   1
@<TRIPOS>SUBSTRUCTURE
     1  ROC      2

