@<TRIPOS>MOLECULE
3cyx_ligand_030
   100   104
SMALL
GAST_HUCK
****
This file was generated by PARSER (from files_GN.cpp)

@<TRIPOS>ATOM
      1 O1         13.5625   20.3632   14.6412 O.2         1 ROC      -0.3762
      2 C1         12.7438   19.4492   14.6528 C.2         1 ROC       0.2293
      3 N1         11.8464   17.5454   13.5601 N.ar        1 ROC      -0.2737
      4 C2         12.9246   18.3375   13.8366 C.ar        1 ROC       0.1219
      5 C3         14.1656   18.0085   13.2469 C.ar        1 ROC      -0.0136
      6 C4         14.2647   16.8916   12.3969 C.ar        1 ROC      -0.0314
      7 C5         13.1123   16.1216   12.1066 C.ar        1 ROC       0.0097
      8 C6         13.1499   15.0299   11.2087 C.ar        1 ROC      -0.0444
      9 C7         11.9704   14.3162   10.9201 C.ar        1 ROC      -0.0546
     10 C8         10.7570   14.6586   11.5472 C.ar        1 ROC      -0.0545
     11 C9R        10.7138   15.7405   12.4485 C.ar        1 ROC      -0.0370
     12 C10        11.8880   16.4780   12.7193 C.ar        1 ROC       0.0527
     13 N2         11.6732   19.5251   15.4405 N.am        1 ROC      -0.2600
     14 C11        11.2777   20.6281   16.2807 C.3         1 ROC       0.1473
     15 C12        11.9674   20.4786   17.5625 C.2         1 ROC       0.2045
     16 O2         11.3147   20.3668   18.5922 O.2         1 ROC      -0.3943
     17 C13         9.7154   20.6349   16.3959 C.3         1 ROC       0.0773
     18 C14         8.9679   20.5648   15.1523 C.2         1 ROC       0.1780
     19 O3          9.2067   21.3369   14.2334 O.2         1 ROC      -0.3970
     20 N3          7.9887   19.6959   15.0031 N.am        1 ROC      -0.3007
     21 C15        15.5743   20.3618   18.5728 C.3         1 ROC       0.1194
     22 O4         16.4127   19.4758   19.3485 O.3         1 ROC      -0.3840
     23 C16        14.0512   20.0478   18.8114 C.3         1 ROC       0.0823
     24 N4         13.2974   20.4172   17.6326 N.am        1 ROC      -0.2772
     25 C17        13.7500   18.5469   19.1814 C.3         1 ROC       0.0066
     26 C18        13.4848   18.1768   20.6053 C.ar        1 ROC      -0.0408
     27 C19        12.8149   16.9499   20.8562 C.ar        1 ROC      -0.0603
     28 C20        13.8233   18.9750   21.7285 C.ar        1 ROC      -0.0603
     29 C21        12.4698   16.5491   22.1608 C.ar        1 ROC      -0.0686
     30 C22        13.5027   18.5675   23.0380 C.ar        1 ROC      -0.0686
     31 C23        12.8207   17.3585   23.2506 C.ar        1 ROC      -0.0687
     32 N5         16.7381   22.6711   17.9142 N.4         1 ROC       0.2562
     33 C24        15.9416   21.8553   18.9113 C.3         1 ROC      -0.0008
     34 C25        18.2406   22.7419   18.1234 C.3         1 ROC       0.0688
     35 C26        18.6724   23.1728   19.4520 C.2         1 ROC       0.2251
     36 O5         17.9343   23.9188   20.0842 O.2         1 ROC      -0.3909
     37 C27        18.8880   23.7397   17.1075 C.3         1 ROC       0.0113
     38 C28        18.4724   23.4904   15.6282 C.3         1 ROC      -0.0261
     39 C29        19.0568   24.5403   14.6291 C.3         1 ROC      -0.0494
     40 C30        18.3409   25.9177   14.6881 C.3         1 ROC      -0.0528
     41 C31        16.8039   25.7822   14.5356 C.3         1 ROC      -0.0526
     42 C32        16.2121   24.7560   15.5365 C.3         1 ROC      -0.0451
     43 C33        16.9239   23.3702   15.4671 C.3         1 ROC       0.0024
     44 C34        16.3453   22.3657   16.4975 C.3         1 ROC      -0.0266
     45 N6         19.9157   22.9185   19.8572 N.am        1 ROC      -0.2771
     46 C35        20.6727   23.3282   21.0202 C.3         1 ROC       0.0448
     47 C36        21.8946   24.1335   20.4782 C.3         1 ROC      -0.0396
     48 C37        21.1775   22.0198   21.7049 C.3         1 ROC      -0.0396
     49 C38        19.9244   24.2096   22.0743 C.3         1 ROC      -0.0396
     50 H1         15.0117   18.5578   13.4400 H           1 ROC       0.0729
     51 H2         15.1690   16.6566   11.9793 H           1 ROC       0.0774
     52 H3         14.0235   14.7541   10.7562 H           1 ROC       0.0657
     53 H4         11.9945   13.5352   10.2618 H           1 ROC       0.0652
     54 H5          9.9075   14.1350   11.3396 H           1 ROC       0.0657
     55 H6          9.8320   15.9883   12.8961 H           1 ROC       0.0653
     56 H7         11.0806   18.7574   15.4419 H           1 ROC       0.1882
     57 H8         11.5832   21.5845   15.8430 H           1 ROC       0.0826
     58 H9          9.4127   21.5464   16.9186 H           1 ROC       0.0551
     59 H10         9.4165   19.7984   17.0321 H           1 ROC       0.0551
     60 H11         7.4868   19.6664   14.1757 H           1 ROC       0.1814
     61 H12         7.7474   19.0957   15.7317 H           1 ROC       0.1814
     62 H13        15.8227   20.1388   17.5301 H           1 ROC       0.0672
     63 H14        16.4559   18.6332   18.8206 H           1 ROC       0.2101
     64 H15        13.7041   20.6888   19.6326 H           1 ROC       0.0606
     65 H16        13.7939   20.5471   16.8133 H           1 ROC       0.1857
     66 H17        14.5602   17.9166   18.8085 H           1 ROC       0.0449
     67 H18        12.8577   18.2402   18.6330 H           1 ROC       0.0449
     68 H19        12.5600   16.3410   20.0805 H           1 ROC       0.0557
     69 H20        14.3104   19.8635   21.5945 H           1 ROC       0.0557
     70 H21        11.9742   15.6653   22.3164 H           1 ROC       0.0599
     71 H22        13.7552   19.1530   23.8396 H           1 ROC       0.0599
     72 H23        12.5798   17.0756   24.1981 H           1 ROC       0.0559
     73 H24        16.4277   23.6385   18.0691 H           1 ROC       0.2057
     74 H25        16.4488   21.8551   19.8847 H           1 ROC       0.0841
     75 H26        15.0237   22.4329   19.1033 H           1 ROC       0.0841
     76 H27        18.6405   21.7337   17.9402 H           1 ROC       0.1100
     77 H28        19.9786   23.6685   17.1732 H           1 ROC       0.0348
     78 H29        18.6077   24.7603   17.3864 H           1 ROC       0.0348
     79 H30        18.9038   22.5221   15.3504 H           1 ROC       0.0309
     80 H31        18.9519   24.1548   13.6131 H           1 ROC       0.0268
     81 H32        20.1238   24.6805   14.8152 H           1 ROC       0.0268
     82 H33        18.7276   26.5577   13.8913 H           1 ROC       0.0265
     83 H34        18.5631   26.4120   15.6383 H           1 ROC       0.0265
     84 H35        16.5663   25.4754   13.5134 H           1 ROC       0.0265
     85 H36        16.3405   26.7569   14.7019 H           1 ROC       0.0265
     86 H37        15.1499   24.6207   15.3147 H           1 ROC       0.0270
     87 H38        16.2921   25.1621   16.5455 H           1 ROC       0.0270
     88 H39        16.7262   22.9583   14.4745 H           1 ROC       0.0355
     89 H40        15.2529   22.3682   16.4158 H           1 ROC       0.0818
     90 H41        16.6867   21.3719   16.2067 H           1 ROC       0.0818
     91 H42        20.4374   22.3846   19.2292 H           1 ROC       0.1859
     92 H43        22.5471   24.4520   21.2942 H           1 ROC       0.0254
     93 H44        21.5592   25.0230   19.9409 H           1 ROC       0.0254
     94 H45        22.4885   23.5275   19.7885 H           1 ROC       0.0254
     95 H46        21.8304   22.2438   22.5561 H           1 ROC       0.0254
     96 H47        21.7447   21.4044   20.9940 H           1 ROC       0.0254
     97 H48        20.3343   21.4228   22.0674 H           1 ROC       0.0254
     98 H49        20.5781   24.4409   22.9237 H           1 ROC       0.0254
     99 H50        19.0437   23.6902   22.4587 H           1 ROC       0.0254
    100 H51        19.6071   25.1574   21.6338 H           1 ROC       0.0254
@<TRIPOS>BOND
     1     2     1   2
     2     2     4   1
     3    13     2  am
     4     4     3  ar
     5     3    12  ar
     6     4     5  ar
     7     5     6  ar
     8     6     7  ar
     9     7     8  ar
    10    12     7  ar
    11     8     9  ar
    12    10     9  ar
    13    11    10  ar
    14    12    11  ar
    15    14    13   1
    16    15    14   1
    17    14    17   1
    18    15    16   2
    19    24    15  am
    20    17    18   1
    21    18    19   2
    22    18    20  am
    23    21    22   1
    24    23    21   1
    25    21    33   1
    26    23    24   1
    27    23    25   1
    28    25    26   1
    29    26    27  ar
    30    26    28  ar
    31    27    29  ar
    32    28    30  ar
    33    29    31  ar
    34    30    31  ar
    35    33    32   1
    36    32    34   1
    37    32    44   1
    38    34    35   1
    39    34    37   1
    40    35    36   2
    41    35    45  am
    42    37    38   1
    43    38    39   1
    44    38    43   1
    45    39    40   1
    46    40    41   1
    47    41    42   1
    48    42    43   1
    49    43    44   1
    50    45    46   1
    51    46    47   1
    52    46    48   1
    53    46    49   1
    54     5    50   1
    55     6    51   1
    56     8    52   1
    57     9    53   1
    58    10    54   1
    59    11    55   1
    60    13    56   1
    61    14    57   1
    62    17    58   1
    63    17    59   1
    64    20    60   1
    65    20    61   1
    66    21    62   1
    67    22    63   1
    68    23    64   1
    69    24    65   1
    70    25    66   1
    71    25    67   1
    72    27    68   1
    73    28    69   1
    74    29    70   1
    75    30    71   1
    76    31    72   1
    77    32    73   1
    78    33    74   1
    79    33    75   1
    80    34    76   1
    81    37    77   1
    82    37    78   1
    83    38    79   1
    84    39    80   1
    85    39    81   1
    86    40    82   1
    87    40    83   1
    88    41    84   1
    89    41    85   1
    90    42    86   1
    91    42    87   1
    92    43    88   1
    93    44    89   1
    94    44    90   1
    95    45    91   1
    96    47    92   1
    97    47    93   1
    98    47    94   1
    99    48    95   1
   100    48    96   1
   101    48    97   1
   102    49    98   1
   103    49    99   1
   104    49   100   1
@<TRIPOS>SUBSTRUCTURE
     1  ROC      2

