@<TRIPOS>MOLECULE
3cyx_ligand_054
   100   104
SMALL
GAST_HUCK
****
This file was generated by PARSER (from files_GN.cpp)

@<TRIPOS>ATOM
      1 O1         21.5263   26.4713   17.3692 O.2         1 ROC      -0.3762
      2 C1         22.2005   26.1716   18.3441 C.2         1 ROC       0.2293
      3 N1         24.1662   26.4587   19.6415 N.ar        1 ROC      -0.2737
      4 C2         23.4535   26.7614   18.5279 C.ar        1 ROC       0.1219
      5 C3         24.0414   27.6624   17.6010 C.ar        1 ROC      -0.0136
      6 C4         25.3232   28.1905   17.8526 C.ar        1 ROC      -0.0314
      7 C5         26.0291   27.8361   19.0237 C.ar        1 ROC       0.0097
      8 C6         27.3212   28.3284   19.3025 C.ar        1 ROC      -0.0444
      9 C7         27.9894   27.9277   20.4845 C.ar        1 ROC      -0.0546
     10 C8         27.3611   27.0544   21.3868 C.ar        1 ROC      -0.0545
     11 C9R        26.0706   26.5637   21.1182 C.ar        1 ROC      -0.0370
     12 C10        25.4043   26.9449   19.9338 C.ar        1 ROC       0.0527
     13 N2         21.7832   25.2958   19.2545 N.am        1 ROC      -0.2600
     14 C11        20.5722   24.5225   19.4050 C.3         1 ROC       0.1473
     15 C12        19.6672   24.4027   18.2569 C.2         1 ROC       0.2045
     16 O2         19.8757   23.4620   17.4923 O.2         1 ROC      -0.3943
     17 C13        19.9051   25.0064   20.7381 C.3         1 ROC       0.0773
     18 C14        18.7132   24.2918   21.1421 C.2         1 ROC       0.1780
     19 O3         18.7568   23.0803   21.3203 O.2         1 ROC      -0.3970
     20 N3         17.5872   24.9131   21.3855 N.am        1 ROC      -0.3007
     21 C15        16.9138   24.2115   16.6693 C.3         1 ROC       0.1194
     22 O4         16.0548   24.4080   15.5397 O.3         1 ROC      -0.3840
     23 C16        17.9247   25.4078   16.7826 C.3         1 ROC       0.0823
     24 N4         18.7724   25.3430   17.9563 N.am        1 ROC      -0.2772
     25 C17        18.8277   25.6336   15.5265 C.3         1 ROC       0.0066
     26 C18        18.1428   25.7395   14.2070 C.ar        1 ROC      -0.0408
     27 C19        17.8772   26.9979   13.6199 C.ar        1 ROC      -0.0603
     28 C20        17.7440   24.5719   13.5103 C.ar        1 ROC      -0.0603
     29 C21        17.2300   27.0869   12.3717 C.ar        1 ROC      -0.0686
     30 C22        17.0561   24.6623   12.2837 C.ar        1 ROC      -0.0686
     31 C23        16.7982   25.9201   11.7187 C.ar        1 ROC      -0.0687
     32 N5         15.6305   22.4866   18.2484 N.4         1 ROC       0.2562
     33 C24        15.9673   23.9293   17.8858 C.3         1 ROC      -0.0008
     34 C25        15.6279   21.4472   17.1492 C.3         1 ROC       0.0688
     35 C26        14.8144   21.7927   15.9855 C.2         1 ROC       0.2251
     36 O5         13.7254   22.3217   16.1732 O.2         1 ROC      -0.3909
     37 C27        15.1275   20.0612   17.6584 C.3         1 ROC       0.0113
     38 C28        15.9390   19.5763   18.8900 C.3         1 ROC      -0.0261
     39 C29        15.4603   18.1955   19.4308 C.3         1 ROC      -0.0494
     40 C30        14.0970   18.2732   20.1684 C.3         1 ROC      -0.0528
     41 C31        14.0904   19.3609   21.2728 C.3         1 ROC      -0.0526
     42 C32        14.5566   20.7457   20.7487 C.3         1 ROC      -0.0451
     43 C33        15.9329   20.6531   20.0204 C.3         1 ROC       0.0024
     44 C34        16.4070   22.0210   19.4465 C.3         1 ROC      -0.0266
     45 N6         15.1914   21.3757   14.7798 N.am        1 ROC      -0.2771
     46 C35        14.4587   21.3930   13.5343 C.3         1 ROC       0.0448
     47 C36        15.4363   20.8688   12.4349 C.3         1 ROC      -0.0396
     48 C37        13.9914   22.8317   13.1564 C.3         1 ROC      -0.0396
     49 C38        13.2341   20.4305   13.6118 C.3         1 ROC      -0.0396
     50 H1         23.5563   27.9296   16.7458 H           1 ROC       0.0729
     51 H2         25.7433   28.8342   17.1724 H           1 ROC       0.0774
     52 H3         27.7906   28.9642   18.6553 H           1 ROC       0.0657
     53 H4         28.9245   28.2821   20.6790 H           1 ROC       0.0652
     54 H5         27.8468   26.7704   22.2452 H           1 ROC       0.0657
     55 H6         25.6192   25.9229   21.7808 H           1 ROC       0.0653
     56 H7         22.4253   25.1347   19.9685 H           1 ROC       0.1882
     57 H8         20.9456   23.5137   19.6181 H           1 ROC       0.0826
     58 H9         19.7073   26.0742   20.6720 H           1 ROC       0.0551
     59 H10        20.6176   24.8941   21.5561 H           1 ROC       0.0551
     60 H11        16.7933   24.4170   21.6547 H           1 ROC       0.1814
     61 H12        17.5468   25.8753   21.2866 H           1 ROC       0.1814
     62 H13        17.5066   23.3288   16.4501 H           1 ROC       0.0672
     63 H14        15.5541   25.2359   15.7071 H           1 ROC       0.2101
     64 H15        17.3155   26.3115   16.9081 H           1 ROC       0.0606
     65 H16        18.6551   26.0660   18.5954 H           1 ROC       0.1857
     66 H17        19.5693   24.8339   15.4610 H           1 ROC       0.0449
     67 H18        19.4021   26.5512   15.6816 H           1 ROC       0.0449
     68 H19        18.1745   27.8592   14.0845 H           1 ROC       0.0557
     69 H20        17.8974   23.6522   13.9229 H           1 ROC       0.0557
     70 H21        17.0565   28.0013   11.9482 H           1 ROC       0.0599
     71 H22        16.7490   23.8134   11.8062 H           1 ROC       0.0599
     72 H23        16.3092   25.9852   10.8197 H           1 ROC       0.0559
     73 H24        14.6658   22.5225   18.5740 H           1 ROC       0.2057
     74 H25        15.0023   24.4125   17.7024 H           1 ROC       0.0841
     75 H26        16.3586   24.4592   18.7475 H           1 ROC       0.0841
     76 H27        16.6590   21.2796   16.8247 H           1 ROC       0.1100
     77 H28        15.2265   19.3179   16.8625 H           1 ROC       0.0348
     78 H29        14.0672   20.1275   17.9057 H           1 ROC       0.0348
     79 H30        16.9724   19.4421   18.5601 H           1 ROC       0.0309
     80 H31        16.2079   17.8113   20.1275 H           1 ROC       0.0268
     81 H32        15.3895   17.4803   18.6086 H           1 ROC       0.0268
     82 H33        13.8805   17.2976   20.6204 H           1 ROC       0.0265
     83 H34        13.3000   18.4773   19.4481 H           1 ROC       0.0265
     84 H35        14.7496   19.0466   22.0838 H           1 ROC       0.0265
     85 H36        13.0805   19.4509   21.6804 H           1 ROC       0.0265
     86 H37        14.6383   21.4255   21.5980 H           1 ROC       0.0270
     87 H38        13.7946   21.1494   20.0810 H           1 ROC       0.0270
     88 H39        16.6733   20.3519   20.7729 H           1 ROC       0.0355
     89 H40        16.3107   22.7464   20.2591 H           1 ROC       0.0818
     90 H41        17.4717   21.9561   19.1906 H           1 ROC       0.0818
     91 H42        16.0572   20.9326   14.7445 H           1 ROC       0.1859
     92 H43        14.9455   20.8351   11.4607 H           1 ROC       0.0254
     93 H44        15.7786   19.8594   12.6789 H           1 ROC       0.0254
     94 H45        16.3130   21.5131   12.3561 H           1 ROC       0.0254
     95 H46        13.5173   22.8359   12.1755 H           1 ROC       0.0254
     96 H47        14.8339   23.5208   13.1299 H           1 ROC       0.0254
     97 H48        13.2657   23.2130   13.8774 H           1 ROC       0.0254
     98 H49        12.7428   20.3522   12.6398 H           1 ROC       0.0254
     99 H50        12.4968   20.7875   14.3302 H           1 ROC       0.0254
    100 H51        13.5542   19.4338   13.9198 H           1 ROC       0.0254
@<TRIPOS>BOND
     1     2     1   2
     2     2     4   1
     3    13     2  am
     4     4     3  ar
     5     3    12  ar
     6     4     5  ar
     7     5     6  ar
     8     6     7  ar
     9     7     8  ar
    10    12     7  ar
    11     8     9  ar
    12    10     9  ar
    13    11    10  ar
    14    12    11  ar
    15    14    13   1
    16    15    14   1
    17    14    17   1
    18    15    16   2
    19    24    15  am
    20    17    18   1
    21    18    19   2
    22    18    20  am
    23    21    22   1
    24    23    21   1
    25    21    33   1
    26    23    24   1
    27    23    25   1
    28    25    26   1
    29    26    27  ar
    30    26    28  ar
    31    27    29  ar
    32    28    30  ar
    33    29    31  ar
    34    30    31  ar
    35    33    32   1
    36    32    34   1
    37    32    44   1
    38    34    35   1
    39    34    37   1
    40    35    36   2
    41    35    45  am
    42    37    38   1
    43    38    39   1
    44    38    43   1
    45    39    40   1
    46    40    41   1
    47    41    42   1
    48    42    43   1
    49    43    44   1
    50    45    46   1
    51    46    47   1
    52    46    48   1
    53    46    49   1
    54     5    50   1
    55     6    51   1
    56     8    52   1
    57     9    53   1
    58    10    54   1
    59    11    55   1
    60    13    56   1
    61    14    57   1
    62    17    58   1
    63    17    59   1
    64    20    60   1
    65    20    61   1
    66    21    62   1
    67    22    63   1
    68    23    64   1
    69    24    65   1
    70    25    66   1
    71    25    67   1
    72    27    68   1
    73    28    69   1
    74    29    70   1
    75    30    71   1
    76    31    72   1
    77    32    73   1
    78    33    74   1
    79    33    75   1
    80    34    76   1
    81    37    77   1
    82    37    78   1
    83    38    79   1
    84    39    80   1
    85    39    81   1
    86    40    82   1
    87    40    83   1
    88    41    84   1
    89    41    85   1
    90    42    86   1
    91    42    87   1
    92    43    88   1
    93    44    89   1
    94    44    90   1
    95    45    91   1
    96    47    92   1
    97    47    93   1
    98    47    94   1
    99    48    95   1
   100    48    96   1
   101    48    97   1
   102    49    98   1
   103    49    99   1
   104    49   100   1
@<TRIPOS>SUBSTRUCTURE
     1  ROC      2

