@<TRIPOS>MOLECULE
3cyx_ligand_008
   100   104
SMALL
GAST_HUCK
****
This file was generated by PARSER (from files_GN.cpp)

@<TRIPOS>ATOM
      1 O1         19.5131   22.6006   18.4569 O.2         1 ROC      -0.3762
      2 C1         18.7162   23.2877   17.8310 C.2         1 ROC       0.2293
      3 N1         18.2812   24.9048   16.1442 N.ar        1 ROC      -0.2737
      4 C2         19.1444   24.3447   17.0386 C.ar        1 ROC       0.1219
      5 C3         20.4569   24.8790   17.1133 C.ar        1 ROC      -0.0136
      6 C4         20.8269   25.9474   16.2805 C.ar        1 ROC      -0.0314
      7 C5         19.9021   26.4814   15.3547 C.ar        1 ROC       0.0097
      8 C6         20.2423   27.5341   14.4799 C.ar        1 ROC      -0.0444
      9 C7         19.2904   28.0214   13.5617 C.ar        1 ROC      -0.0546
     10 C8         17.9905   27.4778   13.5349 C.ar        1 ROC      -0.0545
     11 C9R        17.6421   26.4357   14.4056 C.ar        1 ROC      -0.0370
     12 C10        18.5965   25.9292   15.3108 C.ar        1 ROC       0.0527
     13 N2         17.4119   23.0390   17.9434 N.am        1 ROC      -0.2600
     14 C11        16.7646   22.0125   18.7173 C.3         1 ROC       0.1473
     15 C12        15.3367   22.0585   18.4252 C.2         1 ROC       0.2045
     16 O2         14.5099   22.1400   19.3193 O.2         1 ROC      -0.3943
     17 C13        17.1537   22.0262   20.2488 C.3         1 ROC       0.0773
     18 C14        17.8018   23.2393   20.6995 C.2         1 ROC       0.1780
     19 O3         19.0062   23.2622   20.8915 O.2         1 ROC      -0.3970
     20 N3         17.1393   24.3677   20.8919 N.am        1 ROC      -0.3007
     21 C15        13.3168   20.3733   16.3577 C.3         1 ROC       0.1194
     22 O4         14.1984   19.8721   15.3553 O.3         1 ROC      -0.3840
     23 C16        13.5969   21.8852   16.6511 C.3         1 ROC       0.0823
     24 N4         14.9453   21.9826   17.1546 N.am        1 ROC      -0.2772
     25 C17        13.3801   22.8735   15.4600 C.3         1 ROC       0.0066
     26 C18        14.2244   22.6280   14.2594 C.ar        1 ROC      -0.0408
     27 C19        15.5169   23.1888   14.1726 C.ar        1 ROC      -0.0603
     28 C20        13.7719   21.8020   13.2010 C.ar        1 ROC      -0.0603
     29 C21        16.3499   22.9152   13.0711 C.ar        1 ROC      -0.0686
     30 C22        14.6055   21.5175   12.1044 C.ar        1 ROC      -0.0686
     31 C23        15.9026   22.0647   12.0458 C.ar        1 ROC      -0.0687
     32 N5         11.5199   18.5653   16.0483 N.4         1 ROC       0.2562
     33 C24        11.8398   20.0522   16.0027 C.3         1 ROC      -0.0008
     34 C25        10.8950   18.1119   17.3507 C.3         1 ROC       0.0688
     35 C26        11.7427   18.3490   18.5206 C.2         1 ROC       0.2251
     36 O5         11.2724   18.9641   19.4732 O.2         1 ROC      -0.3909
     37 C27        10.4880   16.6009   17.3376 C.3         1 ROC       0.0113
     38 C28         9.6104   16.2320   16.1078 C.3         1 ROC      -0.0261
     39 C29         9.2196   14.7219   16.0634 C.3         1 ROC      -0.0494
     40 C30        10.3910   13.7885   15.6577 C.3         1 ROC      -0.0528
     41 C31        11.0849   14.2583   14.3536 C.3         1 ROC      -0.0526
     42 C32        11.5050   15.7513   14.4089 C.3         1 ROC      -0.0451
     43 C33        10.3021   16.6708   14.7809 C.3         1 ROC       0.0024
     44 C34        10.6876   18.1767   14.8552 C.3         1 ROC      -0.0266
     45 N6         12.9811   17.8647   18.5541 N.am        1 ROC      -0.2771
     46 C35        13.9321   17.8401   19.6476 C.3         1 ROC       0.0448
     47 C36        15.1158   16.9404   19.1730 C.3         1 ROC      -0.0396
     48 C37        13.2899   17.2091   20.9211 C.3         1 ROC      -0.0396
     49 C38        14.4857   19.2634   19.9727 C.3         1 ROC      -0.0396
     50 H1         21.1429   24.5040   17.7770 H           1 ROC       0.0729
     51 H2         21.7738   26.3301   16.3485 H           1 ROC       0.0774
     52 H3         21.1782   27.9453   14.4904 H           1 ROC       0.0657
     53 H4         19.5440   28.7624   12.9130 H           1 ROC       0.0652
     54 H5         17.3029   27.8463   12.8723 H           1 ROC       0.0657
     55 H6         16.6946   26.0447   14.3763 H           1 ROC       0.0653
     56 H7         16.8217   23.6298   17.4414 H           1 ROC       0.1882
     57 H8         17.1207   21.0442   18.3237 H           1 ROC       0.0826
     58 H9         17.8101   21.1780   20.4461 H           1 ROC       0.0551
     59 H10        16.2588   21.8598   20.8711 H           1 ROC       0.0551
     60 H11        17.6212   25.1758   21.1305 H           1 ROC       0.1814
     61 H12        16.1778   24.3972   20.7811 H           1 ROC       0.1814
     62 H13        13.5554   19.8390   17.2812 H           1 ROC       0.0672
     63 H14        14.2961   18.9098   15.5494 H           1 ROC       0.2101
     64 H15        12.8842   22.1949   17.4249 H           1 ROC       0.0606
     65 H16        15.6513   21.8820   16.4948 H           1 ROC       0.1857
     66 H17        13.5757   23.8917   15.8143 H           1 ROC       0.0449
     67 H18        12.3209   22.8563   15.1847 H           1 ROC       0.0449
     68 H19        15.8695   23.8076   14.9105 H           1 ROC       0.0557
     69 H20        12.8336   21.3802   13.2363 H           1 ROC       0.0557
     70 H21        17.2828   23.3300   13.0280 H           1 ROC       0.0599
     71 H22        14.2795   20.9016   11.3556 H           1 ROC       0.0599
     72 H23        16.5151   21.8466   11.2565 H           1 ROC       0.0559
     73 H24        12.4018   18.0599   15.9534 H           1 ROC       0.2057
     74 H25        11.6679   20.4767   14.9993 H           1 ROC       0.0841
     75 H26        11.1733   20.6030   16.6751 H           1 ROC       0.0841
     76 H27         9.9558   18.6730   17.4738 H           1 ROC       0.1100
     77 H28         9.9262   16.3718   18.2478 H           1 ROC       0.0348
     78 H29        11.3865   15.9794   17.3422 H           1 ROC       0.0348
     79 H30         8.6757   16.7950   16.2012 H           1 ROC       0.0309
     80 H31         8.4098   14.5934   15.3381 H           1 ROC       0.0268
     81 H32         8.8327   14.4110   17.0365 H           1 ROC       0.0268
     82 H33        10.0055   12.7752   15.5121 H           1 ROC       0.0265
     83 H34        11.1233   13.7447   16.4656 H           1 ROC       0.0265
     84 H35        10.4004   14.1100   13.5110 H           1 ROC       0.0265
     85 H36        11.9700   13.6429   14.1756 H           1 ROC       0.0265
     86 H37        11.8981   16.0385   13.4291 H           1 ROC       0.0270
     87 H38        12.3142   15.8677   15.1327 H           1 ROC       0.0270
     88 H39         9.5677   16.5753   13.9726 H           1 ROC       0.0355
     89 H40        11.2272   18.4293   13.9365 H           1 ROC       0.0818
     90 H41         9.7613   18.7635   14.8564 H           1 ROC       0.0818
     91 H42        13.2790   17.4451   17.7306 H           1 ROC       0.1859
     92 H43        15.8738   16.8466   19.9558 H           1 ROC       0.0254
     93 H44        15.5979   17.3590   18.2846 H           1 ROC       0.0254
     94 H45        14.7637   15.9390   18.9177 H           1 ROC       0.0254
     95 H46        14.0377   17.1141   21.7156 H           1 ROC       0.0254
     96 H47        12.8895   16.2154   20.6982 H           1 ROC       0.0254
     97 H48        12.4760   17.8283   21.3043 H           1 ROC       0.0254
     98 H49        15.2284   19.2138   20.7722 H           1 ROC       0.0254
     99 H50        13.6921   19.9360   20.2937 H           1 ROC       0.0254
    100 H51        14.9628   19.6953   19.0882 H           1 ROC       0.0254
@<TRIPOS>BOND
     1     2     1   2
     2     2     4   1
     3    13     2  am
     4     4     3  ar
     5     3    12  ar
     6     4     5  ar
     7     5     6  ar
     8     6     7  ar
     9     7     8  ar
    10    12     7  ar
    11     8     9  ar
    12    10     9  ar
    13    11    10  ar
    14    12    11  ar
    15    14    13   1
    16    15    14   1
    17    14    17   1
    18    15    16   2
    19    24    15  am
    20    17    18   1
    21    18    19   2
    22    18    20  am
    23    21    22   1
    24    23    21   1
    25    21    33   1
    26    23    24   1
    27    23    25   1
    28    25    26   1
    29    26    27  ar
    30    26    28  ar
    31    27    29  ar
    32    28    30  ar
    33    29    31  ar
    34    30    31  ar
    35    33    32   1
    36    32    34   1
    37    32    44   1
    38    34    35   1
    39    34    37   1
    40    35    36   2
    41    35    45  am
    42    37    38   1
    43    38    39   1
    44    38    43   1
    45    39    40   1
    46    40    41   1
    47    41    42   1
    48    42    43   1
    49    43    44   1
    50    45    46   1
    51    46    47   1
    52    46    48   1
    53    46    49   1
    54     5    50   1
    55     6    51   1
    56     8    52   1
    57     9    53   1
    58    10    54   1
    59    11    55   1
    60    13    56   1
    61    14    57   1
    62    17    58   1
    63    17    59   1
    64    20    60   1
    65    20    61   1
    66    21    62   1
    67    22    63   1
    68    23    64   1
    69    24    65   1
    70    25    66   1
    71    25    67   1
    72    27    68   1
    73    28    69   1
    74    29    70   1
    75    30    71   1
    76    31    72   1
    77    32    73   1
    78    33    74   1
    79    33    75   1
    80    34    76   1
    81    37    77   1
    82    37    78   1
    83    38    79   1
    84    39    80   1
    85    39    81   1
    86    40    82   1
    87    40    83   1
    88    41    84   1
    89    41    85   1
    90    42    86   1
    91    42    87   1
    92    43    88   1
    93    44    89   1
    94    44    90   1
    95    45    91   1
    96    47    92   1
    97    47    93   1
    98    47    94   1
    99    48    95   1
   100    48    96   1
   101    48    97   1
   102    49    98   1
   103    49    99   1
   104    49   100   1
@<TRIPOS>SUBSTRUCTURE
     1  ROC      2

