@<TRIPOS>MOLECULE
3cyx_ligand_052
   100   104
SMALL
GAST_HUCK
****
This file was generated by PARSER (from files_GN.cpp)

@<TRIPOS>ATOM
      1 O1         17.5946   21.4555   15.6364 O.2         1 ROC      -0.3762
      2 C1         17.5297   22.6803   15.5928 C.2         1 ROC       0.2293
      3 N1         17.4302   24.6692   14.3269 N.ar        1 ROC      -0.2737
      4 C2         17.1631   23.3382   14.4239 C.ar        1 ROC       0.1219
      5 C3         16.4853   22.7157   13.3499 C.ar        1 ROC      -0.0136
      6 C4         16.0766   23.4894   12.2459 C.ar        1 ROC      -0.0314
      7 C5         16.3764   24.8672   12.1900 C.ar        1 ROC       0.0097
      8 C6         16.0060   25.6922   11.1080 C.ar        1 ROC      -0.0444
      9 C7         16.3366   27.0629   11.1225 C.ar        1 ROC      -0.0546
     10 C8         17.0520   27.6155   12.1967 C.ar        1 ROC      -0.0545
     11 C9R        17.4244   26.8064   13.2810 C.ar        1 ROC      -0.0370
     12 C10        17.0880   25.4432   13.2734 C.ar        1 ROC       0.0527
     13 N2         17.7134   23.4211   16.6789 N.am        1 ROC      -0.2600
     14 C11        18.0016   23.0412   18.0324 C.3         1 ROC       0.1473
     15 C12        17.2502   21.8665   18.4823 C.2         1 ROC       0.2045
     16 O2         17.8876   20.9036   18.8990 O.2         1 ROC      -0.3943
     17 C13        17.8293   24.2508   19.0263 C.3         1 ROC       0.0773
     18 C14        16.9845   25.3552   18.5786 C.2         1 ROC       0.1780
     19 O3         17.4191   26.1694   17.7804 O.2         1 ROC      -0.3970
     20 N3         15.7550   25.5399   19.0096 N.am        1 ROC      -0.3007
     21 C15        14.4459   19.9565   17.7345 C.3         1 ROC       0.1194
     22 O4         15.5434   19.3702   17.0245 O.3         1 ROC      -0.3840
     23 C16        15.0724   20.7796   18.9087 C.3         1 ROC       0.0823
     24 N4         15.9226   21.8359   18.4145 N.am        1 ROC      -0.2772
     25 C17        14.0633   21.3639   19.9504 C.3         1 ROC       0.0066
     26 C18        13.7601   20.4146   21.0594 C.ar        1 ROC      -0.0408
     27 C19        14.4961   20.4808   22.2702 C.ar        1 ROC      -0.0603
     28 C20        12.7844   19.4011   20.9171 C.ar        1 ROC      -0.0603
     29 C21        14.2534   19.5709   23.3115 C.ar        1 ROC      -0.0686
     30 C22        12.5656   18.4684   21.9497 C.ar        1 ROC      -0.0686
     31 C23        13.3083   18.5444   23.1412 C.ar        1 ROC      -0.0687
     32 N5         12.9652   19.7513   15.6777 N.4         1 ROC       0.2562
     33 C24        13.5243   20.7043   16.7210 C.3         1 ROC      -0.0008
     34 C25        11.4783   19.5040   15.7787 C.3         1 ROC       0.0688
     35 C26        11.1187   18.8880   17.0610 C.2         1 ROC       0.2251
     36 O5         10.3563   19.4838   17.8055 O.2         1 ROC      -0.3909
     37 C27        10.8945   18.6031   14.6364 C.3         1 ROC       0.0113
     38 C28        11.3812   18.9957   13.2137 C.3         1 ROC      -0.0261
     39 C29        10.9107   17.9956   12.1098 C.3         1 ROC      -0.0494
     40 C30        11.6530   16.6288   12.1436 C.3         1 ROC      -0.0528
     41 C31        13.1940   16.8058   12.1467 C.3         1 ROC      -0.0526
     42 C32        13.6735   17.7895   13.2459 C.3         1 ROC      -0.0451
     43 C33        12.9309   19.1608   13.1757 C.3         1 ROC       0.0024
     44 C34        13.3907   20.1410   14.2963 C.3         1 ROC      -0.0266
     45 N6         11.6080   17.6787   17.3448 N.am        1 ROC      -0.2771
     46 C35        11.2962   16.7244   18.3836 C.3         1 ROC       0.0448
     47 C36        10.2158   17.1632   19.4278 C.3         1 ROC      -0.0396
     48 C37        12.6361   16.4160   19.1222 C.3         1 ROC      -0.0396
     49 C38        10.7869   15.4364   17.6671 C.3         1 ROC      -0.0396
     50 H1         16.2647   21.7200   13.3705 H           1 ROC       0.0729
     51 H2         15.5526   23.0435   11.4901 H           1 ROC       0.0774
     52 H3         15.4873   25.3157   10.3151 H           1 ROC       0.0657
     53 H4         16.0441   27.6580   10.3508 H           1 ROC       0.0652
     54 H5         17.2908   28.6113   12.1975 H           1 ROC       0.0657
     55 H6         17.9382   27.2129   14.0712 H           1 ROC       0.0653
     56 H7         17.6117   24.3717   16.5370 H           1 ROC       0.1882
     57 H8         19.0689   22.7816   18.0340 H           1 ROC       0.0826
     58 H9         18.8174   24.6760   19.2317 H           1 ROC       0.0551
     59 H10        17.4617   23.8984   19.9961 H           1 ROC       0.0551
     60 H11        15.2359   26.2931   18.6795 H           1 ROC       0.1814
     61 H12        15.3589   24.9405   19.6573 H           1 ROC       0.1814
     62 H13        13.8820   19.1381   18.1679 H           1 ROC       0.0672
     63 H14        15.8073   20.0653   16.3565 H           1 ROC       0.2101
     64 H15        15.6922   20.0606   19.4574 H           1 ROC       0.0606
     65 H16        15.4815   22.6055   18.0192 H           1 ROC       0.1857
     66 H17        13.1319   21.6705   19.4598 H           1 ROC       0.0449
     67 H18        14.4749   22.2775   20.3850 H           1 ROC       0.0449
     68 H19        15.2059   21.1955   22.3938 H           1 ROC       0.0557
     69 H20        12.2203   19.3344   20.0626 H           1 ROC       0.0557
     70 H21        14.7678   19.6535   24.1875 H           1 ROC       0.0599
     71 H22        11.8665   17.7304   21.8339 H           1 ROC       0.0599
     72 H23        13.1455   17.8686   23.8936 H           1 ROC       0.0559
     73 H24        13.4100   18.8453   15.8465 H           1 ROC       0.2057
     74 H25        14.1105   21.5134   16.2732 H           1 ROC       0.0841
     75 H26        12.7183   21.2006   17.2681 H           1 ROC       0.0841
     76 H27        10.9758   20.4754   15.6875 H           1 ROC       0.1100
     77 H28         9.8013   18.6631   14.6577 H           1 ROC       0.0348
     78 H29        11.1586   17.5582   14.8084 H           1 ROC       0.0348
     79 H30        10.9329   19.9666   12.9779 H           1 ROC       0.0309
     80 H31        11.0805   18.4496   11.1275 H           1 ROC       0.0268
     81 H32         9.8356   17.8188   12.2019 H           1 ROC       0.0268
     82 H33        11.3645   16.0409   11.2674 H           1 ROC       0.0265
     83 H34        11.3527   16.0624   13.0271 H           1 ROC       0.0265
     84 H35        13.5118   17.1762   11.1697 H           1 ROC       0.0265
     85 H36        13.6675   15.8320   12.3035 H           1 ROC       0.0265
     86 H37        14.7512   17.9452   13.1292 H           1 ROC       0.0270
     87 H38        13.5108   17.3259   14.2193 H           1 ROC       0.0270
     88 H39        13.1992   19.6207   12.2151 H           1 ROC       0.0355
     89 H40        14.4828   20.1915   14.2620 H           1 ROC       0.0818
     90 H41        13.0089   21.1408   14.0578 H           1 ROC       0.0818
     91 H42        12.2713   17.3567   16.7114 H           1 ROC       0.1859
     92 H43        10.0966   16.3854   20.1911 H           1 ROC       0.0254
     93 H44         9.2427   17.3039   18.9381 H           1 ROC       0.0254
     94 H45        10.4994   18.0837   19.9343 H           1 ROC       0.0254
     95 H46        12.4648   15.7538   19.9712 H           1 ROC       0.0254
     96 H47        13.0840   17.3402   19.5020 H           1 ROC       0.0254
     97 H48        13.3550   15.9329   18.4486 H           1 ROC       0.0254
     98 H49        10.6709   14.6157   18.3792 H           1 ROC       0.0254
     99 H50        11.4848   15.1146   16.8903 H           1 ROC       0.0254
    100 H51         9.8213   15.6167   17.1890 H           1 ROC       0.0254
@<TRIPOS>BOND
     1     2     1   2
     2     2     4   1
     3    13     2  am
     4     4     3  ar
     5     3    12  ar
     6     4     5  ar
     7     5     6  ar
     8     6     7  ar
     9     7     8  ar
    10    12     7  ar
    11     8     9  ar
    12    10     9  ar
    13    11    10  ar
    14    12    11  ar
    15    14    13   1
    16    15    14   1
    17    14    17   1
    18    15    16   2
    19    24    15  am
    20    17    18   1
    21    18    19   2
    22    18    20  am
    23    21    22   1
    24    23    21   1
    25    21    33   1
    26    23    24   1
    27    23    25   1
    28    25    26   1
    29    26    27  ar
    30    26    28  ar
    31    27    29  ar
    32    28    30  ar
    33    29    31  ar
    34    30    31  ar
    35    33    32   1
    36    32    34   1
    37    32    44   1
    38    34    35   1
    39    34    37   1
    40    35    36   2
    41    35    45  am
    42    37    38   1
    43    38    39   1
    44    38    43   1
    45    39    40   1
    46    40    41   1
    47    41    42   1
    48    42    43   1
    49    43    44   1
    50    45    46   1
    51    46    47   1
    52    46    48   1
    53    46    49   1
    54     5    50   1
    55     6    51   1
    56     8    52   1
    57     9    53   1
    58    10    54   1
    59    11    55   1
    60    13    56   1
    61    14    57   1
    62    17    58   1
    63    17    59   1
    64    20    60   1
    65    20    61   1
    66    21    62   1
    67    22    63   1
    68    23    64   1
    69    24    65   1
    70    25    66   1
    71    25    67   1
    72    27    68   1
    73    28    69   1
    74    29    70   1
    75    30    71   1
    76    31    72   1
    77    32    73   1
    78    33    74   1
    79    33    75   1
    80    34    76   1
    81    37    77   1
    82    37    78   1
    83    38    79   1
    84    39    80   1
    85    39    81   1
    86    40    82   1
    87    40    83   1
    88    41    84   1
    89    41    85   1
    90    42    86   1
    91    42    87   1
    92    43    88   1
    93    44    89   1
    94    44    90   1
    95    45    91   1
    96    47    92   1
    97    47    93   1
    98    47    94   1
    99    48    95   1
   100    48    96   1
   101    48    97   1
   102    49    98   1
   103    49    99   1
   104    49   100   1
@<TRIPOS>SUBSTRUCTURE
     1  ROC      2

