@<TRIPOS>MOLECULE
3cyx_ligand_088
   100   104
SMALL
GAST_HUCK
****
This file was generated by PARSER (from files_GN.cpp)

@<TRIPOS>ATOM
      1 O1         25.5815   25.7938   15.9974 O.2         1 ROC      -0.3762
      2 C1         25.8583   26.7310   16.7357 C.2         1 ROC       0.2293
      3 N1         27.2982   27.6450   18.3967 N.ar        1 ROC      -0.2737
      4 C2         27.0423   26.6834   17.4684 C.ar        1 ROC       0.1219
      5 C3         27.9976   25.6449   17.3166 C.ar        1 ROC      -0.0136
      6 C4         29.1666   25.6428   18.0997 C.ar        1 ROC      -0.0314
      7 C5         29.3943   26.6704   19.0400 C.ar        1 ROC       0.0097
      8 C6         30.5585   26.7173   19.8350 C.ar        1 ROC      -0.0444
      9 C7         30.7397   27.7606   20.7619 C.ar        1 ROC      -0.0546
     10 C8         29.7534   28.7572   20.9055 C.ar        1 ROC      -0.0545
     11 C9R        28.5904   28.7188   20.1154 C.ar        1 ROC      -0.0370
     12 C10        28.4105   27.6841   19.1781 C.ar        1 ROC       0.0527
     13 N2         25.0124   27.7471   16.8942 N.am        1 ROC      -0.2600
     14 C11        23.6622   27.9367   16.4157 C.3         1 ROC       0.1473
     15 C12        22.7684   27.8096   17.5622 C.2         1 ROC       0.2045
     16 O2         21.7745   28.5210   17.6251 O.2         1 ROC      -0.3943
     17 C13        23.1653   27.0612   15.2132 C.3         1 ROC       0.0773
     18 C14        21.8692   27.3677   14.6299 C.2         1 ROC       0.1780
     19 O3         21.1806   28.3164   14.9837 O.2         1 ROC      -0.3970
     20 N3         21.3890   26.6092   13.6644 N.am        1 ROC      -0.3007
     21 C15        20.6927   26.1577   19.2085 C.3         1 ROC       0.1194
     22 O4         20.0384   25.6291   20.3723 O.3         1 ROC      -0.3840
     23 C16        22.1486   26.5642   19.6188 C.3         1 ROC       0.0823
     24 N4         22.9749   26.8685   18.4765 N.am        1 ROC      -0.2772
     25 C17        22.2216   27.7054   20.7003 C.3         1 ROC       0.0066
     26 C18        22.6167   27.2659   22.0677 C.ar        1 ROC      -0.0408
     27 C19        21.7805   27.4908   23.1899 C.ar        1 ROC      -0.0603
     28 C20        23.8929   26.6907   22.2857 C.ar        1 ROC      -0.0603
     29 C21        22.2053   27.1428   24.4855 C.ar        1 ROC      -0.0686
     30 C22        24.3174   26.3399   23.5805 C.ar        1 ROC      -0.0686
     31 C23        23.4729   26.5679   24.6824 C.ar        1 ROC      -0.0687
     32 N5         19.3415   24.7000   17.4444 N.4         1 ROC       0.2562
     33 C24        20.6595   25.1222   18.0322 C.3         1 ROC      -0.0008
     34 C25        18.3713   23.9825   18.3515 C.3         1 ROC       0.0688
     35 C26        18.9988   22.9104   19.1253 C.2         1 ROC       0.2251
     36 O5         19.1767   21.8125   18.5914 O.2         1 ROC      -0.3909
     37 C27        17.1614   23.4365   17.5207 C.3         1 ROC       0.0113
     38 C28        16.4912   24.5179   16.6174 C.3         1 ROC      -0.0261
     39 C29        15.3707   23.9368   15.6988 C.3         1 ROC      -0.0494
     40 C30        15.9024   23.1451   14.4723 C.3         1 ROC      -0.0528
     41 C31        16.9271   23.9747   13.6575 C.3         1 ROC      -0.0526
     42 C32        18.0812   24.4851   14.5529 C.3         1 ROC      -0.0451
     43 C33        17.5413   25.3049   15.7682 C.3         1 ROC       0.0024
     44 C34        18.6865   25.8149   16.6833 C.3         1 ROC      -0.0266
     45 N6         19.4709   23.1489   20.3452 N.am        1 ROC      -0.2771
     46 C35        20.3515   22.3503   21.1651 C.3         1 ROC       0.0448
     47 C36        21.8128   22.4308   20.6236 C.3         1 ROC      -0.0396
     48 C37        19.9032   20.8577   21.2635 C.3         1 ROC      -0.0396
     49 C38        20.3209   22.9905   22.5865 C.3         1 ROC      -0.0396
     50 H1         27.8567   24.8889   16.6432 H           1 ROC       0.0729
     51 H2         29.8476   24.8887   17.9782 H           1 ROC       0.0774
     52 H3         31.2824   25.9992   19.7437 H           1 ROC       0.0657
     53 H4         31.5859   27.7967   21.3314 H           1 ROC       0.0652
     54 H5         29.8857   29.5090   21.5842 H           1 ROC       0.0657
     55 H6         27.8788   29.4457   20.2258 H           1 ROC       0.0653
     56 H7         25.3132   28.4363   17.5091 H           1 ROC       0.1882
     57 H8         23.6435   28.9753   16.0689 H           1 ROC       0.0826
     58 H9         23.1439   26.0165   15.5311 H           1 ROC       0.0551
     59 H10        23.8999   27.1503   14.4071 H           1 ROC       0.0551
     60 H11        20.5310   26.8185   13.2636 H           1 ROC       0.1814
     61 H12        21.8930   25.8399   13.3528 H           1 ROC       0.1814
     62 H13        20.1596   27.0555   18.8856 H           1 ROC       0.0672
     63 H14        19.2075   26.1501   20.4518 H           1 ROC       0.2101
     64 H15        22.6088   25.6649   20.0397 H           1 ROC       0.0606
     65 H16        23.7542   26.2998   18.3477 H           1 ROC       0.1857
     66 H17        21.2658   28.2368   20.7272 H           1 ROC       0.0449
     67 H18        22.9600   28.4513   20.4023 H           1 ROC       0.0449
     68 H19        20.8659   27.9316   23.0722 H           1 ROC       0.0557
     69 H20        24.5318   26.5411   21.5007 H           1 ROC       0.0557
     70 H21        21.5971   27.3221   25.2899 H           1 ROC       0.0599
     71 H22        25.2449   25.9340   23.7235 H           1 ROC       0.0599
     72 H23        23.7860   26.3249   25.6253 H           1 ROC       0.0559
     73 H24        19.5937   24.0054   16.7383 H           1 ROC       0.2057
     74 H25        21.2089   24.2310   18.3372 H           1 ROC       0.0841
     75 H26        21.2369   25.5286   17.1972 H           1 ROC       0.0841
     76 H27        17.9625   24.7199   19.0504 H           1 ROC       0.1100
     77 H28        16.4093   23.0313   18.2076 H           1 ROC       0.0348
     78 H29        17.5081   22.6184   16.8864 H           1 ROC       0.0348
     79 H30        16.0091   25.2351   17.2925 H           1 ROC       0.0309
     80 H31        14.7674   24.7655   15.3198 H           1 ROC       0.0268
     81 H32        14.7058   23.2956   16.2828 H           1 ROC       0.0268
     82 H33        15.0607   22.8859   13.8224 H           1 ROC       0.0265
     83 H34        16.3678   22.2100   14.7986 H           1 ROC       0.0265
     84 H35        16.4186   24.8282   13.1986 H           1 ROC       0.0265
     85 H36        17.3342   23.3572   12.8522 H           1 ROC       0.0265
     86 H37        18.7348   25.1174   13.9469 H           1 ROC       0.0270
     87 H38        18.6706   23.6304   14.8946 H           1 ROC       0.0270
     88 H39        17.0394   26.1888   15.3569 H           1 ROC       0.0355
     89 H40        19.4100   26.3387   16.0512 H           1 ROC       0.0818
     90 H41        18.2753   26.5510   17.3814 H           1 ROC       0.0818
     91 H42        19.2867   24.0469   20.6902 H           1 ROC       0.1859
     92 H43        22.4959   21.8704   21.2660 H           1 ROC       0.0254
     93 H44        22.1556   23.4655   20.5866 H           1 ROC       0.0254
     94 H45        21.8774   22.0173   19.6170 H           1 ROC       0.0254
     95 H46        20.4395   20.3419   22.0679 H           1 ROC       0.0254
     96 H47        20.1146   20.3266   20.3346 H           1 ROC       0.0254
     97 H48        18.8329   20.7848   21.4612 H           1 ROC       0.0254
     98 H49        20.9529   22.4227   23.2728 H           1 ROC       0.0254
     99 H50        19.3065   23.0024   22.9855 H           1 ROC       0.0254
    100 H51        20.6813   24.0217   22.5597 H           1 ROC       0.0254
@<TRIPOS>BOND
     1     2     1   2
     2     2     4   1
     3    13     2  am
     4     4     3  ar
     5     3    12  ar
     6     4     5  ar
     7     5     6  ar
     8     6     7  ar
     9     7     8  ar
    10    12     7  ar
    11     8     9  ar
    12    10     9  ar
    13    11    10  ar
    14    12    11  ar
    15    14    13   1
    16    15    14   1
    17    14    17   1
    18    15    16   2
    19    24    15  am
    20    17    18   1
    21    18    19   2
    22    18    20  am
    23    21    22   1
    24    23    21   1
    25    21    33   1
    26    23    24   1
    27    23    25   1
    28    25    26   1
    29    26    27  ar
    30    26    28  ar
    31    27    29  ar
    32    28    30  ar
    33    29    31  ar
    34    30    31  ar
    35    33    32   1
    36    32    34   1
    37    32    44   1
    38    34    35   1
    39    34    37   1
    40    35    36   2
    41    35    45  am
    42    37    38   1
    43    38    39   1
    44    38    43   1
    45    39    40   1
    46    40    41   1
    47    41    42   1
    48    42    43   1
    49    43    44   1
    50    45    46   1
    51    46    47   1
    52    46    48   1
    53    46    49   1
    54     5    50   1
    55     6    51   1
    56     8    52   1
    57     9    53   1
    58    10    54   1
    59    11    55   1
    60    13    56   1
    61    14    57   1
    62    17    58   1
    63    17    59   1
    64    20    60   1
    65    20    61   1
    66    21    62   1
    67    22    63   1
    68    23    64   1
    69    24    65   1
    70    25    66   1
    71    25    67   1
    72    27    68   1
    73    28    69   1
    74    29    70   1
    75    30    71   1
    76    31    72   1
    77    32    73   1
    78    33    74   1
    79    33    75   1
    80    34    76   1
    81    37    77   1
    82    37    78   1
    83    38    79   1
    84    39    80   1
    85    39    81   1
    86    40    82   1
    87    40    83   1
    88    41    84   1
    89    41    85   1
    90    42    86   1
    91    42    87   1
    92    43    88   1
    93    44    89   1
    94    44    90   1
    95    45    91   1
    96    47    92   1
    97    47    93   1
    98    47    94   1
    99    48    95   1
   100    48    96   1
   101    48    97   1
   102    49    98   1
   103    49    99   1
   104    49   100   1
@<TRIPOS>SUBSTRUCTURE
     1  ROC      2

