@<TRIPOS>MOLECULE
3cyx_ligand_068
   100   104
SMALL
GAST_HUCK
****
This file was generated by PARSER (from files_GN.cpp)

@<TRIPOS>ATOM
      1 O1         14.2590   20.6084   13.3178 O.2         1 ROC      -0.3762
      2 C1         13.4978   20.3623   14.2503 C.2         1 ROC       0.2293
      3 N1         11.9046   18.8702   15.2255 N.ar        1 ROC      -0.2737
      4 C2         12.9325   19.0935   14.3555 C.ar        1 ROC       0.1219
      5 C3         13.4024   17.9910   13.5953 C.ar        1 ROC      -0.0136
      6 C4         12.8286   16.7209   13.7656 C.ar        1 ROC      -0.0314
      7 C5         11.7766   16.5340   14.6853 C.ar        1 ROC       0.0097
      8 C6         11.1913   15.2692   14.9015 C.ar        1 ROC      -0.0444
      9 C7         10.1377   15.1282   15.8256 C.ar        1 ROC      -0.0546
     10 C8          9.6646   16.2496   16.5314 C.ar        1 ROC      -0.0545
     11 C9R        10.2471   17.5125   16.3296 C.ar        1 ROC      -0.0370
     12 C10        11.3119   17.6625   15.4123 C.ar        1 ROC       0.0527
     13 N2         13.2549   21.3080   15.1548 N.am        1 ROC      -0.2600
     14 C11        13.8247   22.6373   15.1650 C.3         1 ROC       0.1473
     15 C12        15.2838   22.6473   15.2868 C.2         1 ROC       0.2045
     16 O2         15.9267   21.6023   15.2324 O.2         1 ROC      -0.3943
     17 C13        13.1221   23.5450   16.2338 C.3         1 ROC       0.0773
     18 C14        13.5908   23.3935   17.6005 C.2         1 ROC       0.1780
     19 O3         13.5413   22.3028   18.1525 O.2         1 ROC      -0.3970
     20 N3         14.0870   24.4113   18.2819 N.am        1 ROC      -0.3007
     21 C15        17.4183   25.4205   16.4094 C.3         1 ROC       0.1194
     22 O4         16.9075   26.4867   15.6091 O.3         1 ROC      -0.3840
     23 C16        17.3020   24.0757   15.6211 C.3         1 ROC       0.0823
     24 N4         15.8969   23.8141   15.4497 N.am        1 ROC      -0.2772
     25 C17        18.0311   24.0337   14.2390 C.3         1 ROC       0.0066
     26 C18        17.5278   24.9856   13.2091 C.ar        1 ROC      -0.0408
     27 C19        17.8634   26.3598   13.2582 C.ar        1 ROC      -0.0603
     28 C20        16.6654   24.5332   12.1757 C.ar        1 ROC      -0.0603
     29 C21        17.3202   27.2663   12.3234 C.ar        1 ROC      -0.0686
     30 C22        16.1571   25.4312   11.2238 C.ar        1 ROC      -0.0686
     31 C23        16.4740   26.7974   11.3030 C.ar        1 ROC      -0.0687
     32 N5         19.5349   25.1053   18.0412 N.4         1 ROC       0.2562
     33 C24        18.8419   25.8319   16.9038 C.3         1 ROC      -0.0008
     34 C25        20.4494   26.0347   18.8274 C.3         1 ROC       0.0688
     35 C26        21.4673   26.7077   18.0087 C.2         1 ROC       0.2251
     36 O5         21.3094   27.8961   17.7563 O.2         1 ROC      -0.3909
     37 C27        21.1223   25.3551   20.0631 C.3         1 ROC       0.0113
     38 C28        20.0920   24.6335   20.9760 C.3         1 ROC      -0.0261
     39 C29        20.7612   23.9107   22.1827 C.3         1 ROC      -0.0494
     40 C30        21.5264   22.6148   21.7933 C.3         1 ROC      -0.0528
     41 C31        20.6430   21.6538   20.9563 C.3         1 ROC      -0.0526
     42 C32        19.9916   22.3604   19.7380 C.3         1 ROC      -0.0451
     43 C33        19.2100   23.6446   20.1540 C.3         1 ROC       0.0024
     44 C34        18.5703   24.3795   18.9420 C.3         1 ROC      -0.0266
     45 N6         22.5567   26.0696   17.5813 N.am        1 ROC      -0.2771
     46 C35        23.7086   26.5784   16.8713 C.3         1 ROC       0.0448
     47 C36        24.8751   25.5846   17.1748 C.3         1 ROC      -0.0396
     48 C37        24.1796   27.9958   17.3360 C.3         1 ROC      -0.0396
     49 C38        23.3908   26.5894   15.3463 C.3         1 ROC      -0.0396
     50 H1         14.1705   18.0964   12.9280 H           1 ROC       0.0729
     51 H2         13.1874   15.9345   13.2165 H           1 ROC       0.0774
     52 H3         11.5266   14.4442   14.3965 H           1 ROC       0.0657
     53 H4          9.7201   14.2092   15.9845 H           1 ROC       0.0652
     54 H5          8.8954   16.1412   17.1976 H           1 ROC       0.0657
     55 H6          9.8998   18.3205   16.8499 H           1 ROC       0.0653
     56 H7         12.6298   21.0925   15.8667 H           1 ROC       0.1882
     57 H8         13.5700   23.0749   14.1922 H           1 ROC       0.0826
     58 H9         12.0450   23.3517   16.2171 H           1 ROC       0.0551
     59 H10        13.2447   24.5877   15.9245 H           1 ROC       0.0551
     60 H11        14.3852   24.2927   19.1981 H           1 ROC       0.1814
     61 H12        14.1370   25.2944   17.8759 H           1 ROC       0.1814
     62 H13        16.7734   25.3689   17.2895 H           1 ROC       0.0672
     63 H14        15.9349   26.3513   15.6030 H           1 ROC       0.2101
     64 H15        17.7588   23.2854   16.2287 H           1 ROC       0.0606
     65 H16        15.3124   24.5889   15.4832 H           1 ROC       0.1857
     66 H17        17.9410   23.0185   13.8440 H           1 ROC       0.0449
     67 H18        19.1019   24.1912   14.3860 H           1 ROC       0.0449
     68 H19        18.4992   26.7148   13.9798 H           1 ROC       0.0557
     69 H20        16.4077   23.5459   12.1167 H           1 ROC       0.0557
     70 H21        17.5412   28.2603   12.3832 H           1 ROC       0.0599
     71 H22        15.5420   25.0921   10.4765 H           1 ROC       0.0599
     72 H23        16.0916   27.4520   10.6236 H           1 ROC       0.0559
     73 H24        20.1321   24.3904   17.6151 H           1 ROC       0.2057
     74 H25        18.7528   26.8858   17.1853 H           1 ROC       0.0841
     75 H26        19.5158   25.8053   16.0428 H           1 ROC       0.0841
     76 H27        19.8087   26.8166   19.2570 H           1 ROC       0.1100
     77 H28        21.6408   26.1159   20.6534 H           1 ROC       0.0348
     78 H29        21.8664   24.6334   19.7291 H           1 ROC       0.0348
     79 H30        19.4317   25.4042   21.3949 H           1 ROC       0.0309
     80 H31        19.9831   23.6464   22.9052 H           1 ROC       0.0268
     81 H32        21.4477   24.6008   22.6768 H           1 ROC       0.0268
     82 H33        21.8492   22.1017   22.7030 H           1 ROC       0.0265
     83 H34        22.4255   22.8674   21.2249 H           1 ROC       0.0265
     84 H35        19.8568   21.2428   21.5983 H           1 ROC       0.0265
     85 H36        21.2541   20.8155   20.6022 H           1 ROC       0.0265
     86 H37        19.3040   21.6602   19.2593 H           1 ROC       0.0270
     87 H38        20.7657   22.6121   19.0108 H           1 ROC       0.0270
     88 H39        18.3859   23.3180   20.8011 H           1 ROC       0.0355
     89 H40        18.0291   23.6221   18.3727 H           1 ROC       0.0818
     90 H41        17.8319   25.0887   19.3266 H           1 ROC       0.0818
     91 H42        22.5950   25.1267   17.8039 H           1 ROC       0.1859
     92 H43        25.7782   25.8580   16.6233 H           1 ROC       0.0254
     93 H44        24.6079   24.5637   16.8999 H           1 ROC       0.0254
     94 H45        25.1139   25.5880   18.2420 H           1 ROC       0.0254
     95 H46        25.1515   28.2443   16.9039 H           1 ROC       0.0254
     96 H47        24.2672   28.0305   18.4244 H           1 ROC       0.0254
     97 H48        23.4819   28.7712   17.0194 H           1 ROC       0.0254
     98 H49        24.2682   26.8895   14.7689 H           1 ROC       0.0254
     99 H50        22.5805   27.2892   15.1303 H           1 ROC       0.0254
    100 H51        23.0814   25.5983   15.0073 H           1 ROC       0.0254
@<TRIPOS>BOND
     1     2     1   2
     2     2     4   1
     3    13     2  am
     4     4     3  ar
     5     3    12  ar
     6     4     5  ar
     7     5     6  ar
     8     6     7  ar
     9     7     8  ar
    10    12     7  ar
    11     8     9  ar
    12    10     9  ar
    13    11    10  ar
    14    12    11  ar
    15    14    13   1
    16    15    14   1
    17    14    17   1
    18    15    16   2
    19    24    15  am
    20    17    18   1
    21    18    19   2
    22    18    20  am
    23    21    22   1
    24    23    21   1
    25    21    33   1
    26    23    24   1
    27    23    25   1
    28    25    26   1
    29    26    27  ar
    30    26    28  ar
    31    27    29  ar
    32    28    30  ar
    33    29    31  ar
    34    30    31  ar
    35    33    32   1
    36    32    34   1
    37    32    44   1
    38    34    35   1
    39    34    37   1
    40    35    36   2
    41    35    45  am
    42    37    38   1
    43    38    39   1
    44    38    43   1
    45    39    40   1
    46    40    41   1
    47    41    42   1
    48    42    43   1
    49    43    44   1
    50    45    46   1
    51    46    47   1
    52    46    48   1
    53    46    49   1
    54     5    50   1
    55     6    51   1
    56     8    52   1
    57     9    53   1
    58    10    54   1
    59    11    55   1
    60    13    56   1
    61    14    57   1
    62    17    58   1
    63    17    59   1
    64    20    60   1
    65    20    61   1
    66    21    62   1
    67    22    63   1
    68    23    64   1
    69    24    65   1
    70    25    66   1
    71    25    67   1
    72    27    68   1
    73    28    69   1
    74    29    70   1
    75    30    71   1
    76    31    72   1
    77    32    73   1
    78    33    74   1
    79    33    75   1
    80    34    76   1
    81    37    77   1
    82    37    78   1
    83    38    79   1
    84    39    80   1
    85    39    81   1
    86    40    82   1
    87    40    83   1
    88    41    84   1
    89    41    85   1
    90    42    86   1
    91    42    87   1
    92    43    88   1
    93    44    89   1
    94    44    90   1
    95    45    91   1
    96    47    92   1
    97    47    93   1
    98    47    94   1
    99    48    95   1
   100    48    96   1
   101    48    97   1
   102    49    98   1
   103    49    99   1
   104    49   100   1
@<TRIPOS>SUBSTRUCTURE
     1  ROC      2

