@<TRIPOS>MOLECULE
3cyx_ligand_075
   100   104
SMALL
GAST_HUCK
****
This file was generated by PARSER (from files_GN.cpp)

@<TRIPOS>ATOM
      1 O1         13.2649   20.9299   19.8997 O.2         1 ROC      -0.3762
      2 C1         13.3576   21.0008   18.6742 C.2         1 ROC       0.2293
      3 N1         12.0328   20.7991   16.7248 N.ar        1 ROC      -0.2737
      4 C2         12.4384   20.2907   17.9212 C.ar        1 ROC       0.1219
      5 C3         11.8672   19.0734   18.3670 C.ar        1 ROC      -0.0136
      6 C4         10.9065   18.4218   17.5685 C.ar        1 ROC      -0.0314
      7 C5         10.4953   18.9919   16.3519 C.ar        1 ROC       0.0097
      8 C6          9.5099   18.3961   15.5306 C.ar        1 ROC      -0.0444
      9 C7          9.1174   19.0117   14.3262 C.ar        1 ROC      -0.0546
     10 C8          9.7157   20.2249   13.9327 C.ar        1 ROC      -0.0545
     11 C9R        10.6912   20.8339   14.7420 C.ar        1 ROC      -0.0370
     12 C10        11.0900   20.2152   15.9402 C.ar        1 ROC       0.0527
     13 N2         14.2987   21.7450   18.0976 N.am        1 ROC      -0.2600
     14 C11        15.3070   22.5212   18.7730 C.3         1 ROC       0.1473
     15 C12        16.1073   23.2698   17.8012 C.2         1 ROC       0.2045
     16 O2         16.1483   24.4890   17.8850 O.2         1 ROC      -0.3943
     17 C13        16.2099   21.6316   19.6926 C.3         1 ROC       0.0773
     18 C14        17.2938   22.3224   20.3585 C.2         1 ROC       0.1780
     19 O3         18.4072   21.8160   20.4023 O.2         1 ROC      -0.3970
     20 N3         17.0988   23.4322   21.0402 N.am        1 ROC      -0.3007
     21 C15        19.0768   23.7937   16.4355 C.3         1 ROC       0.1194
     22 O4         20.1508   23.1162   15.7811 O.3         1 ROC      -0.3840
     23 C16        17.7283   23.1606   15.8990 C.3         1 ROC       0.0823
     24 N4         16.8315   22.6236   16.8950 N.am        1 ROC      -0.2772
     25 C17        17.0185   24.1092   14.8792 C.3         1 ROC       0.0066
     26 C18        15.7496   23.5758   14.3151 C.ar        1 ROC      -0.0408
     27 C19        14.5313   23.7065   15.0260 C.ar        1 ROC      -0.0603
     28 C20        15.7215   22.9617   13.0367 C.ar        1 ROC      -0.0603
     29 C21        13.3222   23.2327   14.4818 C.ar        1 ROC      -0.0686
     30 C22        14.5159   22.4958   12.4858 C.ar        1 ROC      -0.0686
     31 C23        13.3133   22.6319   13.2097 C.ar        1 ROC      -0.0687
     32 N5         20.7258   24.1015   18.4774 N.4         1 ROC       0.2562
     33 C24        19.3333   23.7665   17.9727 C.3         1 ROC      -0.0008
     34 C25        21.0381   25.5729   18.6902 C.3         1 ROC       0.0688
     35 C26        20.9527   26.4064   17.4875 C.2         1 ROC       0.2251
     36 O5         20.3081   27.4446   17.5515 O.2         1 ROC      -0.3909
     37 C27        22.4619   25.8100   19.3020 C.3         1 ROC       0.0113
     38 C28        22.7332   24.9713   20.5811 C.3         1 ROC      -0.0261
     39 C29        24.1784   25.1619   21.1423 C.3         1 ROC      -0.0494
     40 C30        25.2694   24.4365   20.3071 C.3         1 ROC      -0.0528
     41 C31        24.9227   22.9442   20.0684 C.3         1 ROC      -0.0526
     42 C32        23.5074   22.7612   19.4650 C.3         1 ROC      -0.0451
     43 C33        22.4211   23.4659   20.3327 C.3         1 ROC       0.0024
     44 C34        20.9916   23.3135   19.7418 C.3         1 ROC      -0.0266
     45 N6         21.6738   26.0980   16.4115 N.am        1 ROC      -0.2771
     46 C35        21.9025   26.7766   15.1526 C.3         1 ROC       0.0448
     47 C36        21.5906   25.7553   14.0181 C.3         1 ROC      -0.0396
     48 C37        23.4201   27.1325   15.1162 C.3         1 ROC      -0.0396
     49 C38        21.0724   28.0718   14.8944 C.3         1 ROC      -0.0396
     50 H1         12.1517   18.6500   19.2547 H           1 ROC       0.0729
     51 H2         10.5083   17.5364   17.8912 H           1 ROC       0.0774
     52 H3          9.0654   17.5132   15.8055 H           1 ROC       0.0657
     53 H4          8.3976   18.5828   13.7391 H           1 ROC       0.0652
     54 H5          9.4362   20.6681   13.0576 H           1 ROC       0.0657
     55 H6         11.1081   21.7385   14.4731 H           1 ROC       0.0653
     56 H7         14.2996   21.7626   17.1243 H           1 ROC       0.1882
     57 H8         14.7667   23.2285   19.4117 H           1 ROC       0.0826
     58 H9         16.5960   20.7901   19.1046 H           1 ROC       0.0551
     59 H10        15.6090   21.1972   20.4943 H           1 ROC       0.0551
     60 H11        17.8395   23.8532   21.5041 H           1 ROC       0.1814
     61 H12        16.2162   23.8351   21.0780 H           1 ROC       0.1814
     62 H13        19.1113   24.8345   16.1270 H           1 ROC       0.0672
     63 H14        20.9467   23.6622   15.9135 H           1 ROC       0.2101
     64 H15        18.0057   22.2714   15.3235 H           1 ROC       0.0606
     65 H16        16.7346   21.6585   16.8940 H           1 ROC       0.1857
     66 H17        17.7118   24.3076   14.0553 H           1 ROC       0.0449
     67 H18        16.8333   25.0783   15.3503 H           1 ROC       0.0449
     68 H19        14.5119   24.1527   15.9447 H           1 ROC       0.0557
     69 H20        16.5851   22.8576   12.5018 H           1 ROC       0.0557
     70 H21        12.4395   23.3401   14.9897 H           1 ROC       0.0599
     71 H22        14.5050   22.0654   11.5595 H           1 ROC       0.0599
     72 H23        12.4376   22.3090   12.8046 H           1 ROC       0.0559
     73 H24        21.3876   23.7623   17.7762 H           1 ROC       0.2057
     74 H25        19.0685   22.7459   18.2643 H           1 ROC       0.0841
     75 H26        18.6197   24.4372   18.4576 H           1 ROC       0.0841
     76 H27        20.3197   25.9497   19.4312 H           1 ROC       0.1100
     77 H28        22.5743   26.8690   19.5555 H           1 ROC       0.0348
     78 H29        23.2269   25.5712   18.5590 H           1 ROC       0.0348
     79 H30        22.0457   25.3364   21.3543 H           1 ROC       0.0309
     80 H31        24.2108   24.7718   22.1630 H           1 ROC       0.0268
     81 H32        24.4187   26.2269   21.1955 H           1 ROC       0.0268
     82 H33        26.2240   24.5010   20.8366 H           1 ROC       0.0265
     83 H34        25.3933   24.9385   19.3457 H           1 ROC       0.0265
     84 H35        24.9838   22.4056   21.0187 H           1 ROC       0.0265
     85 H36        25.6621   22.5093   19.3915 H           1 ROC       0.0265
     86 H37        23.2899   21.6908   19.4059 H           1 ROC       0.0270
     87 H38        23.4945   23.1558   18.4470 H           1 ROC       0.0270
     88 H39        22.4143   22.9604   21.3078 H           1 ROC       0.0355
     89 H40        20.8347   22.2479   19.5631 H           1 ROC       0.0818
     90 H41        20.2741   23.6212   20.5114 H           1 ROC       0.0818
     91 H42        22.1714   25.2737   16.4971 H           1 ROC       0.1859
     92 H43        21.8038   26.1895   13.0397 H           1 ROC       0.0254
     93 H44        20.5364   25.4690   14.0409 H           1 ROC       0.0254
     94 H45        22.1941   24.8515   14.1227 H           1 ROC       0.0254
     95 H46        23.7014   27.5530   14.1482 H           1 ROC       0.0254
     96 H47        24.0344   26.2467   15.2879 H           1 ROC       0.0254
     97 H48        23.6606   27.8642   15.8915 H           1 ROC       0.0254
     98 H49        21.2810   28.4727   13.9006 H           1 ROC       0.0254
     99 H50        21.3218   28.8409   15.6281 H           1 ROC       0.0254
    100 H51        20.0013   27.8644   14.9529 H           1 ROC       0.0254
@<TRIPOS>BOND
     1     2     1   2
     2     2     4   1
     3    13     2  am
     4     4     3  ar
     5     3    12  ar
     6     4     5  ar
     7     5     6  ar
     8     6     7  ar
     9     7     8  ar
    10    12     7  ar
    11     8     9  ar
    12    10     9  ar
    13    11    10  ar
    14    12    11  ar
    15    14    13   1
    16    15    14   1
    17    14    17   1
    18    15    16   2
    19    24    15  am
    20    17    18   1
    21    18    19   2
    22    18    20  am
    23    21    22   1
    24    23    21   1
    25    21    33   1
    26    23    24   1
    27    23    25   1
    28    25    26   1
    29    26    27  ar
    30    26    28  ar
    31    27    29  ar
    32    28    30  ar
    33    29    31  ar
    34    30    31  ar
    35    33    32   1
    36    32    34   1
    37    32    44   1
    38    34    35   1
    39    34    37   1
    40    35    36   2
    41    35    45  am
    42    37    38   1
    43    38    39   1
    44    38    43   1
    45    39    40   1
    46    40    41   1
    47    41    42   1
    48    42    43   1
    49    43    44   1
    50    45    46   1
    51    46    47   1
    52    46    48   1
    53    46    49   1
    54     5    50   1
    55     6    51   1
    56     8    52   1
    57     9    53   1
    58    10    54   1
    59    11    55   1
    60    13    56   1
    61    14    57   1
    62    17    58   1
    63    17    59   1
    64    20    60   1
    65    20    61   1
    66    21    62   1
    67    22    63   1
    68    23    64   1
    69    24    65   1
    70    25    66   1
    71    25    67   1
    72    27    68   1
    73    28    69   1
    74    29    70   1
    75    30    71   1
    76    31    72   1
    77    32    73   1
    78    33    74   1
    79    33    75   1
    80    34    76   1
    81    37    77   1
    82    37    78   1
    83    38    79   1
    84    39    80   1
    85    39    81   1
    86    40    82   1
    87    40    83   1
    88    41    84   1
    89    41    85   1
    90    42    86   1
    91    42    87   1
    92    43    88   1
    93    44    89   1
    94    44    90   1
    95    45    91   1
    96    47    92   1
    97    47    93   1
    98    47    94   1
    99    48    95   1
   100    48    96   1
   101    48    97   1
   102    49    98   1
   103    49    99   1
   104    49   100   1
@<TRIPOS>SUBSTRUCTURE
     1  ROC      2

