@<TRIPOS>MOLECULE
3cyx_ligand_011
   100   104
SMALL
GAST_HUCK
****
This file was generated by PARSER (from files_GN.cpp)

@<TRIPOS>ATOM
      1 O1         18.3567   25.0497   18.1938 O.2         1 ROC      -0.3762
      2 C1         19.3737   24.4760   18.5769 C.2         1 ROC       0.2293
      3 N1         21.5382   24.8343   19.4655 N.ar        1 ROC      -0.2737
      4 C2         20.5648   25.1875   18.5764 C.ar        1 ROC       0.1219
      5 C3         20.8061   26.3005   17.7359 C.ar        1 ROC      -0.0136
      6 C4         22.0243   26.9960   17.8230 C.ar        1 ROC      -0.0314
      7 C5         22.9998   26.6069   18.7660 C.ar        1 ROC       0.0097
      8 C6         24.2245   27.2914   18.9160 C.ar        1 ROC      -0.0444
      9 C7         25.1479   26.8824   19.9009 C.ar        1 ROC      -0.0546
     10 C8         24.8586   25.7817   20.7257 C.ar        1 ROC      -0.0545
     11 C9R        23.6469   25.0806   20.5720 C.ar        1 ROC      -0.0370
     12 C10        22.7167   25.4898   19.5979 C.ar        1 ROC       0.0527
     13 N2         19.3409   23.2129   18.9905 N.am        1 ROC      -0.2600
     14 C11        18.2323   22.2961   19.1064 C.3         1 ROC       0.1473
     15 C12        17.5797   22.0308   17.8171 C.2         1 ROC       0.2045
     16 O2         18.0216   21.1405   17.0974 O.2         1 ROC      -0.3943
     17 C13        17.2765   22.6814   20.2737 C.3         1 ROC       0.0773
     18 C14        16.3320   21.6495   20.6765 C.2         1 ROC       0.1780
     19 O3         16.6387   20.4650   20.6388 O.2         1 ROC      -0.3970
     20 N3         15.1859   21.9608   21.2384 N.am        1 ROC      -0.3007
     21 C15        14.5108   22.1769   16.1762 C.3         1 ROC       0.1194
     22 O4         13.7749   22.7042   17.2867 O.3         1 ROC      -0.3840
     23 C16        15.9216   22.8602   16.1257 C.3         1 ROC       0.0823
     24 N4         16.5920   22.8105   17.3963 N.am        1 ROC      -0.2772
     25 C17        16.8145   22.4903   14.8808 C.3         1 ROC       0.0066
     26 C18        16.9097   23.5532   13.8464 C.ar        1 ROC      -0.0408
     27 C19        17.9891   24.4666   13.8580 C.ar        1 ROC      -0.0603
     28 C20        15.9289   23.6610   12.8288 C.ar        1 ROC      -0.0603
     29 C21        18.0848   25.4700   12.8831 C.ar        1 ROC      -0.0686
     30 C22        16.0323   24.6627   11.8487 C.ar        1 ROC      -0.0686
     31 C23        17.1021   25.5713   11.8788 C.ar        1 ROC      -0.0687
     32 N5         13.4790   19.8236   15.4607 N.4         1 ROC       0.2562
     33 C24        14.5055   20.6072   16.2490 C.3         1 ROC      -0.0008
     34 C25        12.0683   19.7898   16.0130 C.3         1 ROC       0.0688
     35 C26        11.9455   19.3609   17.4138 C.2         1 ROC       0.2251
     36 O5         11.0478   19.8352   18.1021 O.2         1 ROC      -0.3909
     37 C27        11.1596   18.8426   15.1526 C.3         1 ROC       0.0113
     38 C28        11.1952   19.1693   13.6304 C.3         1 ROC      -0.0261
     39 C29        10.3126   18.2183   12.7582 C.3         1 ROC      -0.0494
     40 C30        10.9299   16.8097   12.5355 C.3         1 ROC      -0.0528
     41 C31        12.3883   16.8889   12.0171 C.3         1 ROC      -0.0526
     42 C32        13.2731   17.7794   12.9259 C.3         1 ROC      -0.0451
     43 C33        12.6595   19.2017   13.0949 C.3         1 ROC       0.0024
     44 C34        13.5248   20.1406   13.9881 C.3         1 ROC      -0.0266
     45 N6         12.7083   18.3773   17.8862 N.am        1 ROC      -0.2771
     46 C35        12.7111   17.7309   19.1812 C.3         1 ROC       0.0448
     47 C36        12.6913   18.7576   20.3577 C.3         1 ROC      -0.0396
     48 C37        14.0413   16.9179   19.2508 C.3         1 ROC      -0.0396
     49 C38        11.5115   16.7432   19.3088 C.3         1 ROC      -0.0396
     50 H1         20.1075   26.6023   17.0494 H           1 ROC       0.0729
     51 H2         22.1928   27.7930   17.2053 H           1 ROC       0.0774
     52 H3         24.4533   28.0923   18.3224 H           1 ROC       0.0657
     53 H4         26.0289   27.3911   20.0175 H           1 ROC       0.0652
     54 H5         25.5259   25.4909   21.4415 H           1 ROC       0.0657
     55 H6         23.4408   24.2857   21.1800 H           1 ROC       0.0653
     56 H7         20.2012   22.8432   19.2507 H           1 ROC       0.1882
     57 H8         18.7027   21.3602   19.4215 H           1 ROC       0.0826
     58 H9         16.7386   23.6008   20.0214 H           1 ROC       0.0551
     59 H10        17.8933   22.9089   21.1498 H           1 ROC       0.0551
     60 H11        14.5912   21.2630   21.5512 H           1 ROC       0.1814
     61 H12        14.9473   22.8896   21.3738 H           1 ROC       0.1814
     62 H13        13.9641   22.4937   15.2814 H           1 ROC       0.0672
     63 H14        12.8333   22.4949   17.1052 H           1 ROC       0.2101
     64 H15        15.6941   23.9250   16.0297 H           1 ROC       0.0606
     65 H16        16.3189   23.4989   18.0227 H           1 ROC       0.1857
     66 H17        16.4503   21.5868   14.3745 H           1 ROC       0.0449
     67 H18        17.8257   22.2395   15.2217 H           1 ROC       0.0449
     68 H19        18.7080   24.4053   14.5896 H           1 ROC       0.0557
     69 H20        15.1417   23.0058   12.7965 H           1 ROC       0.0557
     70 H21        18.8634   26.1257   12.9053 H           1 ROC       0.0599
     71 H22        15.3251   24.7328   11.1132 H           1 ROC       0.0599
     72 H23        17.1645   26.3043   11.1765 H           1 ROC       0.0559
     73 H24        13.7967   18.8545   15.5299 H           1 ROC       0.2057
     74 H25        14.4616   20.3161   17.3002 H           1 ROC       0.0841
     75 H26        15.4706   20.2281   15.9250 H           1 ROC       0.0841
     76 H27        11.6667   20.8081   15.9325 H           1 ROC       0.1100
     77 H28        10.1224   18.9178   15.4947 H           1 ROC       0.0348
     78 H29        11.4791   17.8077   15.3038 H           1 ROC       0.0348
     79 H30        10.7707   20.1747   13.5176 H           1 ROC       0.0309
     80 H31        10.1714   18.6846   11.7780 H           1 ROC       0.0268
     81 H32         9.3212   18.1125   13.2072 H           1 ROC       0.0268
     82 H33        10.3222   16.2663   11.8067 H           1 ROC       0.0265
     83 H34        10.9064   16.2446   13.4698 H           1 ROC       0.0265
     84 H35        12.3872   17.2967   11.0017 H           1 ROC       0.0265
     85 H36        12.8149   15.8835   11.9686 H           1 ROC       0.0265
     86 H37        14.2665   17.8599   12.4766 H           1 ROC       0.0270
     87 H38        13.3907   17.2986   13.8992 H           1 ROC       0.0270
     88 H39        12.6290   19.6529   12.0967 H           1 ROC       0.0355
     89 H40        14.5571   20.0883   13.6304 H           1 ROC       0.0818
     90 H41        13.1705   21.1630   13.8160 H           1 ROC       0.0818
     91 H42        13.3678   18.0418   17.2634 H           1 ROC       0.1859
     92 H43        12.8771   18.2563   21.3123 H           1 ROC       0.0254
     93 H44        11.7242   19.2566   20.4345 H           1 ROC       0.0254
     94 H45        13.4593   19.5185   20.2099 H           1 ROC       0.0254
     95 H46        14.1330   16.3997   20.2083 H           1 ROC       0.0254
     96 H47        14.9028   17.5816   19.1395 H           1 ROC       0.0254
     97 H48        14.0849   16.1686   18.4553 H           1 ROC       0.0254
     98 H49        11.5519   16.2079   20.2615 H           1 ROC       0.0254
     99 H50        11.5328   16.0057   18.5029 H           1 ROC       0.0254
    100 H51        10.5613   17.2782   19.2601 H           1 ROC       0.0254
@<TRIPOS>BOND
     1     2     1   2
     2     2     4   1
     3    13     2  am
     4     4     3  ar
     5     3    12  ar
     6     4     5  ar
     7     5     6  ar
     8     6     7  ar
     9     7     8  ar
    10    12     7  ar
    11     8     9  ar
    12    10     9  ar
    13    11    10  ar
    14    12    11  ar
    15    14    13   1
    16    15    14   1
    17    14    17   1
    18    15    16   2
    19    24    15  am
    20    17    18   1
    21    18    19   2
    22    18    20  am
    23    21    22   1
    24    23    21   1
    25    21    33   1
    26    23    24   1
    27    23    25   1
    28    25    26   1
    29    26    27  ar
    30    26    28  ar
    31    27    29  ar
    32    28    30  ar
    33    29    31  ar
    34    30    31  ar
    35    33    32   1
    36    32    34   1
    37    32    44   1
    38    34    35   1
    39    34    37   1
    40    35    36   2
    41    35    45  am
    42    37    38   1
    43    38    39   1
    44    38    43   1
    45    39    40   1
    46    40    41   1
    47    41    42   1
    48    42    43   1
    49    43    44   1
    50    45    46   1
    51    46    47   1
    52    46    48   1
    53    46    49   1
    54     5    50   1
    55     6    51   1
    56     8    52   1
    57     9    53   1
    58    10    54   1
    59    11    55   1
    60    13    56   1
    61    14    57   1
    62    17    58   1
    63    17    59   1
    64    20    60   1
    65    20    61   1
    66    21    62   1
    67    22    63   1
    68    23    64   1
    69    24    65   1
    70    25    66   1
    71    25    67   1
    72    27    68   1
    73    28    69   1
    74    29    70   1
    75    30    71   1
    76    31    72   1
    77    32    73   1
    78    33    74   1
    79    33    75   1
    80    34    76   1
    81    37    77   1
    82    37    78   1
    83    38    79   1
    84    39    80   1
    85    39    81   1
    86    40    82   1
    87    40    83   1
    88    41    84   1
    89    41    85   1
    90    42    86   1
    91    42    87   1
    92    43    88   1
    93    44    89   1
    94    44    90   1
    95    45    91   1
    96    47    92   1
    97    47    93   1
    98    47    94   1
    99    48    95   1
   100    48    96   1
   101    48    97   1
   102    49    98   1
   103    49    99   1
   104    49   100   1
@<TRIPOS>SUBSTRUCTURE
     1  ROC      2

