@<TRIPOS>MOLECULE
3cyx_ligand_014
   100   104
SMALL
GAST_HUCK
****
This file was generated by PARSER (from files_GN.cpp)

@<TRIPOS>ATOM
      1 O1         18.7148   21.7745   16.1362 O.2         1 ROC      -0.3762
      2 C1         18.6965   22.7503   16.8780 C.2         1 ROC       0.2293
      3 N1         19.9576   24.6057   17.6353 N.ar        1 ROC      -0.2737
      4 C2         19.4886   23.8545   16.6006 C.ar        1 ROC       0.1219
      5 C3         19.8327   24.2454   15.2855 C.ar        1 ROC      -0.0136
      6 C4         20.6354   25.3806   15.0765 C.ar        1 ROC      -0.0314
      7 C5         21.1373   26.1070   16.1793 C.ar        1 ROC       0.0097
      8 C6         21.9992   27.2129   16.0296 C.ar        1 ROC      -0.0444
      9 C7         22.4962   27.8803   17.1640 C.ar        1 ROC      -0.0546
     10 C8         22.1193   27.4661   18.4548 C.ar        1 ROC      -0.0545
     11 C9R        21.2498   26.3759   18.6189 C.ar        1 ROC      -0.0370
     12 C10        20.7655   25.6870   17.4868 C.ar        1 ROC       0.0527
     13 N2         17.9165   22.7590   17.9548 N.am        1 ROC      -0.2600
     14 C11        17.0957   21.6909   18.4679 C.3         1 ROC       0.1473
     15 C12        16.0010   21.3861   17.5413 C.2         1 ROC       0.2045
     16 O2         16.2703   21.0600   16.3910 O.2         1 ROC      -0.3943
     17 C13        16.6323   22.0580   19.9227 C.3         1 ROC       0.0773
     18 C14        17.5767   22.8289   20.7097 C.2         1 ROC       0.1780
     19 O3         18.7640   22.5249   20.7338 O.2         1 ROC      -0.3970
     20 N3         17.1883   23.8757   21.4107 N.am        1 ROC      -0.3007
     21 C15        13.3493   20.3111   16.2185 C.3         1 ROC       0.1194
     22 O4         14.2544   20.1614   15.1176 O.3         1 ROC      -0.3840
     23 C16        13.5835   21.6297   17.0268 C.3         1 ROC       0.0823
     24 N4         14.7261   21.5297   17.8860 N.am        1 ROC      -0.2772
     25 C17        13.5431   22.9561   16.1816 C.3         1 ROC       0.0066
     26 C18        14.5367   23.9898   16.5992 C.ar        1 ROC      -0.0408
     27 C19        15.6242   24.3269   15.7570 C.ar        1 ROC      -0.0603
     28 C20        14.4776   24.5733   17.8901 C.ar        1 ROC      -0.0603
     29 C21        16.6397   25.1914   16.2007 C.ar        1 ROC      -0.0686
     30 C22        15.5074   25.4167   18.3486 C.ar        1 ROC      -0.0686
     31 C23        16.5940   25.7170   17.5044 C.ar        1 ROC      -0.0687
     32 N5         11.6294   18.7116   15.3456 N.4         1 ROC       0.2562
     33 C24        11.9088   20.1606   15.6701 C.3         1 ROC      -0.0008
     34 C25        10.7061   18.0055   16.3071 C.3         1 ROC       0.0688
     35 C26        11.1321   18.1111   17.7056 C.2         1 ROC       0.2251
     36 O5         10.4291   18.7284   18.4959 O.2         1 ROC      -0.3909
     37 C27        10.5671   16.4937   15.9353 C.3         1 ROC       0.0113
     38 C28        10.1485   16.2786   14.4502 C.3         1 ROC      -0.0261
     39 C29        10.0784   14.7692   14.0621 C.3         1 ROC      -0.0494
     40 C30        11.4739   14.1120   13.8843 C.3         1 ROC      -0.0528
     41 C31        12.3714   14.9138   12.9093 C.3         1 ROC      -0.0526
     42 C32        12.4855   16.4044   13.3229 C.3         1 ROC      -0.0451
     43 C33        11.0812   17.0697   13.4761 C.3         1 ROC       0.0024
     44 C34        11.1912   18.5515   13.9214 C.3         1 ROC      -0.0266
     45 N6         12.2938   17.5841   18.0799 N.am        1 ROC      -0.2771
     46 C35        12.9132   17.5471   19.3847 C.3         1 ROC       0.0448
     47 C36        13.1197   18.9674   19.9973 C.3         1 ROC      -0.0396
     48 C37        14.3131   16.8880   19.1691 C.3         1 ROC      -0.0396
     49 C38        12.0718   16.6628   20.3518 C.3         1 ROC      -0.0396
     50 H1         19.4751   23.7375   14.4764 H           1 ROC       0.0729
     51 H2         20.8557   25.6696   14.1201 H           1 ROC       0.0774
     52 H3         22.2849   27.5263   15.0941 H           1 ROC       0.0657
     53 H4         23.1477   28.6595   17.0517 H           1 ROC       0.0652
     54 H5         22.4812   27.9546   19.2780 H           1 ROC       0.0657
     55 H6         20.9750   26.0695   19.5590 H           1 ROC       0.0653
     56 H7         17.9572   23.5649   18.4915 H           1 ROC       0.1882
     57 H8         17.7147   20.7914   18.5509 H           1 ROC       0.0826
     58 H9         16.4182   21.1360   20.4742 H           1 ROC       0.0551
     59 H10        15.6992   22.6273   19.8717 H           1 ROC       0.0551
     60 H11        17.8387   24.3941   21.9133 H           1 ROC       0.1814
     61 H12        16.2415   24.1178   21.4426 H           1 ROC       0.1814
     62 H13        13.5428   19.4731   16.8908 H           1 ROC       0.0672
     63 H14        15.1155   19.9154   15.5091 H           1 ROC       0.2101
     64 H15        12.7481   21.6994   17.7348 H           1 ROC       0.0606
     65 H16        14.5418   21.7248   18.8162 H           1 ROC       0.1857
     66 H17        12.5438   23.3980   16.2637 H           1 ROC       0.0449
     67 H18        13.6838   22.7053   15.1244 H           1 ROC       0.0449
     68 H19        15.6992   23.9207   14.8206 H           1 ROC       0.0557
     69 H20        13.7088   24.3491   18.5216 H           1 ROC       0.0557
     70 H21        17.4261   25.4173   15.5887 H           1 ROC       0.0599
     71 H22        15.4693   25.8123   19.2914 H           1 ROC       0.0599
     72 H23        17.3473   26.3198   17.8356 H           1 ROC       0.0559
     73 H24        12.5277   18.2213   15.4193 H           1 ROC       0.2057
     74 H25        11.8200   20.8219   14.8021 H           1 ROC       0.0841
     75 H26        11.1918   20.5496   16.4038 H           1 ROC       0.0841
     76 H27         9.7087   18.4527   16.2072 H           1 ROC       0.1100
     77 H28         9.8199   16.0246   16.5824 H           1 ROC       0.0348
     78 H29        11.5204   15.9884   16.1139 H           1 ROC       0.0348
     79 H30         9.1377   16.6834   14.3436 H           1 ROC       0.0309
     80 H31         9.5281   14.6739   13.1218 H           1 ROC       0.0268
     81 H32         9.5166   14.2185   14.8211 H           1 ROC       0.0268
     82 H33        11.3459   13.0957   13.4976 H           1 ROC       0.0265
     83 H34        11.9724   14.0312   14.8530 H           1 ROC       0.0265
     84 H35        11.9576   14.8515   11.9013 H           1 ROC       0.0265
     85 H36        13.3704   14.4741   12.8931 H           1 ROC       0.0265
     86 H37        13.0631   16.9346   12.5599 H           1 ROC       0.0270
     87 H38        13.0407   16.4699   14.2600 H           1 ROC       0.0270
     88 H39        10.6138   17.0672   12.4837 H           1 ROC       0.0355
     89 H40        11.8985   19.0553   13.2505 H           1 ROC       0.0818
     90 H41        10.2175   19.0379   13.7819 H           1 ROC       0.0818
     91 H42        12.7991   17.1573   17.3682 H           1 ROC       0.1859
     92 H43        13.6423   18.8991   20.9539 H           1 ROC       0.0254
     93 H44        12.1671   19.4662   20.1794 H           1 ROC       0.0254
     94 H45        13.7094   19.5965   19.3299 H           1 ROC       0.0254
     95 H46        14.8387   16.7703   20.1179 H           1 ROC       0.0254
     96 H47        14.9308   17.5009   18.5093 H           1 ROC       0.0254
     97 H48        14.2101   15.9011   18.7101 H           1 ROC       0.0254
     98 H49        12.6057   16.4987   21.2911 H           1 ROC       0.0254
     99 H50        11.8585   15.6918   19.9012 H           1 ROC       0.0254
    100 H51        11.1218   17.1475   20.5868 H           1 ROC       0.0254
@<TRIPOS>BOND
     1     2     1   2
     2     2     4   1
     3    13     2  am
     4     4     3  ar
     5     3    12  ar
     6     4     5  ar
     7     5     6  ar
     8     6     7  ar
     9     7     8  ar
    10    12     7  ar
    11     8     9  ar
    12    10     9  ar
    13    11    10  ar
    14    12    11  ar
    15    14    13   1
    16    15    14   1
    17    14    17   1
    18    15    16   2
    19    24    15  am
    20    17    18   1
    21    18    19   2
    22    18    20  am
    23    21    22   1
    24    23    21   1
    25    21    33   1
    26    23    24   1
    27    23    25   1
    28    25    26   1
    29    26    27  ar
    30    26    28  ar
    31    27    29  ar
    32    28    30  ar
    33    29    31  ar
    34    30    31  ar
    35    33    32   1
    36    32    34   1
    37    32    44   1
    38    34    35   1
    39    34    37   1
    40    35    36   2
    41    35    45  am
    42    37    38   1
    43    38    39   1
    44    38    43   1
    45    39    40   1
    46    40    41   1
    47    41    42   1
    48    42    43   1
    49    43    44   1
    50    45    46   1
    51    46    47   1
    52    46    48   1
    53    46    49   1
    54     5    50   1
    55     6    51   1
    56     8    52   1
    57     9    53   1
    58    10    54   1
    59    11    55   1
    60    13    56   1
    61    14    57   1
    62    17    58   1
    63    17    59   1
    64    20    60   1
    65    20    61   1
    66    21    62   1
    67    22    63   1
    68    23    64   1
    69    24    65   1
    70    25    66   1
    71    25    67   1
    72    27    68   1
    73    28    69   1
    74    29    70   1
    75    30    71   1
    76    31    72   1
    77    32    73   1
    78    33    74   1
    79    33    75   1
    80    34    76   1
    81    37    77   1
    82    37    78   1
    83    38    79   1
    84    39    80   1
    85    39    81   1
    86    40    82   1
    87    40    83   1
    88    41    84   1
    89    41    85   1
    90    42    86   1
    91    42    87   1
    92    43    88   1
    93    44    89   1
    94    44    90   1
    95    45    91   1
    96    47    92   1
    97    47    93   1
    98    47    94   1
    99    48    95   1
   100    48    96   1
   101    48    97   1
   102    49    98   1
   103    49    99   1
   104    49   100   1
@<TRIPOS>SUBSTRUCTURE
     1  ROC      2

