@<TRIPOS>MOLECULE
3cyx_ligand_065
   100   104
SMALL
GAST_HUCK
****
This file was generated by PARSER (from files_GN.cpp)

@<TRIPOS>ATOM
      1 O1         22.3028   21.6417   20.4558 O.2         1 ROC      -0.3762
      2 C1         22.4408   22.5644   19.6623 C.2         1 ROC       0.2293
      3 N1         23.8372   24.0151   18.4100 N.ar        1 ROC      -0.2737
      4 C2         23.7086   22.9302   19.2220 C.ar        1 ROC       0.1219
      5 C3         24.8916   22.2445   19.5921 C.ar        1 ROC      -0.0136
      6 C4         26.1415   22.6932   19.1239 C.ar        1 ROC      -0.0314
      7 C5         26.2222   23.8248   18.2870 C.ar        1 ROC       0.0097
      8 C6         27.4505   24.3244   17.8000 C.ar        1 ROC      -0.0444
      9 C7         27.4712   25.4645   16.9738 C.ar        1 ROC      -0.0546
     10 C8         26.2691   26.1078   16.6225 C.ar        1 ROC      -0.0545
     11 C9R        25.0406   25.6182   17.1001 C.ar        1 ROC      -0.0370
     12 C10        25.0165   24.4839   17.9319 C.ar        1 ROC       0.0527
     13 N2         21.3808   23.2529   19.2529 N.am        1 ROC      -0.2600
     14 C11        20.0033   23.0602   19.6130 C.3         1 ROC       0.1473
     15 C12        19.2514   23.2125   18.3660 C.2         1 ROC       0.2045
     16 O2         19.1742   22.2438   17.6202 O.2         1 ROC      -0.3943
     17 C13        19.5382   23.9488   20.8297 C.3         1 ROC       0.0773
     18 C14        20.4872   24.9527   21.2897 C.2         1 ROC       0.1780
     19 O3         21.4912   24.6130   21.9015 O.2         1 ROC      -0.3970
     20 N3         20.3202   26.2361   21.0624 N.am        1 ROC      -0.3007
     21 C15        16.6917   23.7309   16.6810 C.3         1 ROC       0.1194
     22 O4         15.8092   24.2630   15.6889 O.3         1 ROC      -0.3840
     23 C16        17.9338   24.6828   16.8364 C.3         1 ROC       0.0823
     24 N4         18.7426   24.3846   17.9923 N.am        1 ROC      -0.2772
     25 C17        18.8655   24.7844   15.5808 C.3         1 ROC       0.0066
     26 C18        18.2127   25.2979   14.3366 C.ar        1 ROC      -0.0408
     27 C19        18.1854   26.6795   14.0330 C.ar        1 ROC      -0.0603
     28 C20        17.6010   24.3989   13.4317 C.ar        1 ROC      -0.0603
     29 C21        17.5400   27.1491   12.8691 C.ar        1 ROC      -0.0686
     30 C22        16.9298   24.8681   12.2862 C.ar        1 ROC      -0.0686
     31 C23        16.9058   26.2412   12.0016 C.ar        1 ROC      -0.0687
     32 N5         15.5169   22.0161   18.3757 N.4         1 ROC       0.2562
     33 C24        15.8336   23.4392   17.9684 C.3         1 ROC      -0.0008
     34 C25        15.4302   20.9440   17.3082 C.3         1 ROC       0.0688
     35 C26        14.6316   21.3052   16.1351 C.2         1 ROC       0.2251
     36 O5         13.4998   21.7307   16.3150 O.2         1 ROC      -0.3909
     37 C27        14.8231   19.6316   17.8968 C.3         1 ROC       0.0113
     38 C28        15.5950   19.1317   19.1521 C.3         1 ROC      -0.0261
     39 C29        14.9776   17.8423   19.7753 C.3         1 ROC      -0.0494
     40 C30        13.6603   18.1037   20.5542 C.3         1 ROC      -0.0528
     41 C31        13.8230   19.2324   21.6056 C.3         1 ROC      -0.0526
     42 C32        14.4023   20.5299   20.9842 C.3         1 ROC      -0.0451
     43 C33        15.7370   20.2639   20.2201 C.3         1 ROC       0.0024
     44 C34        16.3171   21.5503   19.5626 C.3         1 ROC      -0.0266
     45 N6         15.0977   21.0667   14.9115 N.am        1 ROC      -0.2771
     46 C35        14.4343   21.2001   13.6324 C.3         1 ROC       0.0448
     47 C36        13.9030   22.6463   13.3881 C.3         1 ROC      -0.0396
     48 C37        13.2713   20.1702   13.5174 C.3         1 ROC      -0.0396
     49 C38        15.4965   20.8750   12.5330 C.3         1 ROC      -0.0396
     50 H1         24.8572   21.4242   20.1983 H           1 ROC       0.0729
     51 H2         26.9889   22.1896   19.4006 H           1 ROC       0.0774
     52 H3         28.3320   23.8675   18.0474 H           1 ROC       0.0657
     53 H4         28.3618   25.8278   16.6302 H           1 ROC       0.0652
     54 H5         26.2883   26.9355   16.0231 H           1 ROC       0.0657
     55 H6         24.1688   26.0903   16.8438 H           1 ROC       0.0653
     56 H7         21.5577   23.9875   18.6439 H           1 ROC       0.1882
     57 H8         19.8621   22.0195   19.9353 H           1 ROC       0.0826
     58 H9         19.3342   23.3007   21.6878 H           1 ROC       0.0551
     59 H10        18.5841   24.4325   20.6059 H           1 ROC       0.0551
     60 H11        20.9862   26.8721   21.3729 H           1 ROC       0.1814
     61 H12        19.5389   26.5524   20.5814 H           1 ROC       0.1814
     62 H13        17.0674   22.7949   16.2746 H           1 ROC       0.0672
     63 H14        15.4711   25.1114   16.0432 H           1 ROC       0.2101
     64 H15        17.5376   25.6877   17.0136 H           1 ROC       0.0606
     65 H16        18.9288   25.1365   18.5754 H           1 ROC       0.1857
     66 H17        19.3077   23.8061   15.3777 H           1 ROC       0.0449
     67 H18        19.7034   25.4454   15.8238 H           1 ROC       0.0449
     68 H19        18.6309   27.3582   14.6558 H           1 ROC       0.0557
     69 H20        17.6055   23.3967   13.6250 H           1 ROC       0.0557
     70 H21        17.5210   28.1487   12.6587 H           1 ROC       0.0599
     71 H22        16.4562   24.2087   11.6656 H           1 ROC       0.0599
     72 H23        16.4177   26.5842   11.1682 H           1 ROC       0.0559
     73 H24        14.5622   22.0783   18.7371 H           1 ROC       0.2057
     74 H25        14.8529   23.9070   17.8416 H           1 ROC       0.0841
     75 H26        16.2667   23.9975   18.8019 H           1 ROC       0.0841
     76 H27        16.4525   20.6967   16.9941 H           1 ROC       0.1100
     77 H28        14.8532   18.8451   17.1363 H           1 ROC       0.0348
     78 H29        13.7758   19.7988   18.1559 H           1 ROC       0.0348
     79 H30        16.6016   18.8642   18.8141 H           1 ROC       0.0309
     80 H31        15.7063   17.4065   20.4662 H           1 ROC       0.0268
     81 H32        14.7928   17.1000   18.9920 H           1 ROC       0.0268
     82 H33        13.3565   17.1828   21.0609 H           1 ROC       0.0265
     83 H34        12.8632   18.3709   19.8550 H           1 ROC       0.0265
     84 H35        14.4891   18.8861   22.4012 H           1 ROC       0.0265
     85 H36        12.8506   19.4486   22.0544 H           1 ROC       0.0265
     86 H37        14.5793   21.2492   21.7883 H           1 ROC       0.0270
     87 H38        13.6571   20.9635   20.3139 H           1 ROC       0.0270
     88 H39        16.4662   19.9249   20.9670 H           1 ROC       0.0355
     89 H40        16.3502   22.3206   20.3400 H           1 ROC       0.0818
     90 H41        17.3472   21.3526   19.2600 H           1 ROC       0.0818
     91 H42        15.9923   20.7023   14.8770 H           1 ROC       0.1859
     92 H43        13.4818   22.7399   12.3853 H           1 ROC       0.0254
     93 H44        14.7082   23.3699   13.4749 H           1 ROC       0.0254
     94 H45        13.1270   22.9171   14.1056 H           1 ROC       0.0254
     95 H46        12.8147   20.2099   12.5255 H           1 ROC       0.0254
     96 H47        12.4919   20.3732   14.2536 H           1 ROC       0.0254
     97 H48        13.6399   19.1562   13.6847 H           1 ROC       0.0254
     98 H49        15.0708   20.9770   11.5342 H           1 ROC       0.0254
     99 H50        15.8663   19.8561   12.6406 H           1 ROC       0.0254
    100 H51        16.3462   21.5506   12.6087 H           1 ROC       0.0254
@<TRIPOS>BOND
     1     2     1   2
     2     2     4   1
     3    13     2  am
     4     4     3  ar
     5     3    12  ar
     6     4     5  ar
     7     5     6  ar
     8     6     7  ar
     9     7     8  ar
    10    12     7  ar
    11     8     9  ar
    12    10     9  ar
    13    11    10  ar
    14    12    11  ar
    15    14    13   1
    16    15    14   1
    17    14    17   1
    18    15    16   2
    19    24    15  am
    20    17    18   1
    21    18    19   2
    22    18    20  am
    23    21    22   1
    24    23    21   1
    25    21    33   1
    26    23    24   1
    27    23    25   1
    28    25    26   1
    29    26    27  ar
    30    26    28  ar
    31    27    29  ar
    32    28    30  ar
    33    29    31  ar
    34    30    31  ar
    35    33    32   1
    36    32    34   1
    37    32    44   1
    38    34    35   1
    39    34    37   1
    40    35    36   2
    41    35    45  am
    42    37    38   1
    43    38    39   1
    44    38    43   1
    45    39    40   1
    46    40    41   1
    47    41    42   1
    48    42    43   1
    49    43    44   1
    50    45    46   1
    51    46    47   1
    52    46    48   1
    53    46    49   1
    54     5    50   1
    55     6    51   1
    56     8    52   1
    57     9    53   1
    58    10    54   1
    59    11    55   1
    60    13    56   1
    61    14    57   1
    62    17    58   1
    63    17    59   1
    64    20    60   1
    65    20    61   1
    66    21    62   1
    67    22    63   1
    68    23    64   1
    69    24    65   1
    70    25    66   1
    71    25    67   1
    72    27    68   1
    73    28    69   1
    74    29    70   1
    75    30    71   1
    76    31    72   1
    77    32    73   1
    78    33    74   1
    79    33    75   1
    80    34    76   1
    81    37    77   1
    82    37    78   1
    83    38    79   1
    84    39    80   1
    85    39    81   1
    86    40    82   1
    87    40    83   1
    88    41    84   1
    89    41    85   1
    90    42    86   1
    91    42    87   1
    92    43    88   1
    93    44    89   1
    94    44    90   1
    95    45    91   1
    96    47    92   1
    97    47    93   1
    98    47    94   1
    99    48    95   1
   100    48    96   1
   101    48    97   1
   102    49    98   1
   103    49    99   1
   104    49   100   1
@<TRIPOS>SUBSTRUCTURE
     1  ROC      2

