@<TRIPOS>MOLECULE
3cyx_ligand_002
   100   104
SMALL
GAST_HUCK
****
This file was generated by PARSER (from files_GN.cpp)

@<TRIPOS>ATOM
      1 O1         12.3405   20.8642   16.4325 O.2         1 ROC      -0.3762
      2 C1         12.5595   20.8723   17.6393 C.2         1 ROC       0.2293
      3 N1         12.6509   19.7492   19.7272 N.ar        1 ROC      -0.2737
      4 C2         12.3242   19.7355   18.4038 C.ar        1 ROC       0.1219
      5 C3         11.8262   18.5272   17.8576 C.ar        1 ROC      -0.0136
      6 C4         11.7054   17.3888   18.6756 C.ar        1 ROC      -0.0314
      7 C5         12.0741   17.4483   20.0332 C.ar        1 ROC       0.0097
      8 C6         12.0122   16.3254   20.8844 C.ar        1 ROC      -0.0444
      9 C7         12.4054   16.4328   22.2321 C.ar        1 ROC      -0.0546
     10 C8         12.8481   17.6664   22.7442 C.ar        1 ROC      -0.0545
     11 C9R        12.9180   18.7929   21.9072 C.ar        1 ROC      -0.0370
     12 C10        12.5436   18.6829   20.5544 C.ar        1 ROC       0.0527
     13 N2         13.1159   21.9398   18.2045 N.am        1 ROC      -0.2600
     14 C11        13.6304   23.0968   17.5208 C.3         1 ROC       0.1473
     15 C12        14.8110   22.7699   16.7290 C.2         1 ROC       0.2045
     16 O2         15.1788   21.6024   16.5969 O.2         1 ROC      -0.3943
     17 C13        13.8411   24.2640   18.5465 C.3         1 ROC       0.0773
     18 C14        15.1984   24.4808   19.0150 C.2         1 ROC       0.1780
     19 O3         15.8907   23.5427   19.3874 O.2         1 ROC      -0.3970
     20 N3         15.7199   25.6915   19.0336 N.am        1 ROC      -0.3007
     21 C15        17.8904   24.3839   16.2787 C.3         1 ROC       0.1194
     22 O4         18.1703   25.6380   15.6578 O.3         1 ROC      -0.3840
     23 C16        16.7682   23.6150   15.4863 C.3         1 ROC       0.0823
     24 N4         15.5528   23.7584   16.2314 N.am        1 ROC      -0.2772
     25 C17        16.5114   24.0706   14.0130 C.3         1 ROC       0.0066
     26 C18        15.5020   23.2178   13.3069 C.ar        1 ROC      -0.0408
     27 C19        14.1476   23.1899   13.7216 C.ar        1 ROC      -0.0603
     28 C20        15.8834   22.3803   12.2304 C.ar        1 ROC      -0.0603
     29 C21        13.2133   22.3428   13.1012 C.ar        1 ROC      -0.0686
     30 C22        14.9513   21.5274   11.6144 C.ar        1 ROC      -0.0686
     31 C23        13.6177   21.5053   12.0486 C.ar        1 ROC      -0.0687
     32 N5         20.0818   24.0097   17.6983 N.4         1 ROC       0.2562
     33 C24        19.2176   23.5891   16.5244 C.3         1 ROC      -0.0008
     34 C25        20.0881   25.4832   18.0426 C.3         1 ROC       0.0688
     35 C26        20.3512   26.3888   16.9238 C.2         1 ROC       0.2251
     36 O5         20.0744   27.5651   17.1085 O.2         1 ROC      -0.3909
     37 C27        21.1017   25.8040   19.1832 C.3         1 ROC       0.0113
     38 C28        20.8327   24.9462   20.4566 C.3         1 ROC      -0.0261
     39 C29        21.8469   25.2468   21.6034 C.3         1 ROC      -0.0494
     40 C30        23.2569   24.6494   21.3532 C.3         1 ROC      -0.0528
     41 C31        23.1838   23.1333   21.0355 C.3         1 ROC      -0.0526
     42 C32        22.2155   22.8377   19.8615 C.3         1 ROC      -0.0451
     43 C33        20.7899   23.4256   20.1086 C.3         1 ROC       0.0024
     44 C34        19.8133   23.1661   18.9197 C.3         1 ROC      -0.0266
     45 N6         20.9451   25.9751   15.8118 N.am        1 ROC      -0.2771
     46 C35        21.1351   26.6270   14.5325 C.3         1 ROC       0.0448
     47 C36        20.4381   25.7036   13.4921 C.3         1 ROC      -0.0396
     48 C37        22.6644   26.6703   14.2545 C.3         1 ROC      -0.0396
     49 C38        20.5381   28.0646   14.3847 C.3         1 ROC      -0.0396
     50 H1         11.5645   18.4573   16.8709 H           1 ROC       0.0729
     51 H2         11.3623   16.5155   18.2684 H           1 ROC       0.0774
     52 H3         11.6800   15.4262   20.5298 H           1 ROC       0.0657
     53 H4         12.3557   15.6157   22.8432 H           1 ROC       0.0652
     54 H5         13.1275   17.7416   23.7250 H           1 ROC       0.0657
     55 H6         13.2558   19.6838   22.2797 H           1 ROC       0.0653
     56 H7         13.2769   21.8997   19.1624 H           1 ROC       0.1882
     57 H8         12.8594   23.4296   16.8167 H           1 ROC       0.0826
     58 H9         13.2131   24.1031   19.4237 H           1 ROC       0.0551
     59 H10        13.4696   25.1814   18.0813 H           1 ROC       0.0551
     60 H11        16.6403   25.8224   19.3154 H           1 ROC       0.1814
     61 H12        15.1775   26.4501   18.7496 H           1 ROC       0.1814
     62 H13        17.5075   24.6232   17.2717 H           1 ROC       0.0672
     63 H14        17.3336   26.1458   15.6951 H           1 ROC       0.2101
     64 H15        17.0475   22.5593   15.4172 H           1 ROC       0.0606
     65 H16        15.2429   24.6677   16.4041 H           1 ROC       0.1857
     66 H17        17.4696   24.0457   13.4866 H           1 ROC       0.0449
     67 H18        16.1629   25.1068   13.9930 H           1 ROC       0.0449
     68 H19        13.8258   23.7958   14.4804 H           1 ROC       0.0557
     69 H20        16.8462   22.3800   11.8932 H           1 ROC       0.0557
     70 H21        12.2395   22.3362   13.4139 H           1 ROC       0.0599
     71 H22        15.2441   20.9228   10.8486 H           1 ROC       0.0599
     72 H23        12.9441   20.8874   11.5959 H           1 ROC       0.0559
     73 H24        21.0439   23.7891   17.4150 H           1 ROC       0.2057
     74 H25        19.8142   23.6360   15.6161 H           1 ROC       0.0841
     75 H26        18.9865   22.5260   16.6392 H           1 ROC       0.0841
     76 H27        19.0911   25.7258   18.4401 H           1 ROC       0.1100
     77 H28        21.0238   26.8620   19.4599 H           1 ROC       0.0348
     78 H29        22.1173   25.6255   18.8181 H           1 ROC       0.0348
     79 H30        19.8441   25.2345   20.8319 H           1 ROC       0.0309
     80 H31        21.4525   24.8286   22.5360 H           1 ROC       0.0268
     81 H32        21.9355   26.3277   21.7474 H           1 ROC       0.0268
     82 H33        23.8761   24.8023   22.2412 H           1 ROC       0.0265
     83 H34        23.7438   25.1712   20.5253 H           1 ROC       0.0265
     84 H35        22.8523   22.5927   21.9278 H           1 ROC       0.0265
     85 H36        24.1849   22.7724   20.7801 H           1 ROC       0.0265
     86 H37        22.1445   21.7539   19.7435 H           1 ROC       0.0270
     87 H38        22.6398   23.2472   18.9419 H           1 ROC       0.0270
     88 H39        20.3766   22.9005   20.9771 H           1 ROC       0.0355
     89 H40        19.8724   22.1032   18.6678 H           1 ROC       0.0818
     90 H41        18.7914   23.3487   19.2716 H           1 ROC       0.0818
     91 H42        21.2543   25.0569   15.8417 H           1 ROC       0.1859
     92 H43        20.5664   26.1028   12.4871 H           1 ROC       0.0254
     93 H44        19.3654   25.6344   13.6919 H           1 ROC       0.0254
     94 H45        20.8606   24.6935   13.5134 H           1 ROC       0.0254
     95 H46        22.8671   27.0917   13.2708 H           1 ROC       0.0254
     96 H47        23.0960   25.6723   14.2878 H           1 ROC       0.0254
     97 H48        23.1723   27.2835   14.9981 H           1 ROC       0.0254
     98 H49        20.6100   28.4074   13.3515 H           1 ROC       0.0254
     99 H50        21.0852   28.7756   15.0090 H           1 ROC       0.0254
    100 H51        19.4830   28.0776   14.6751 H           1 ROC       0.0254
@<TRIPOS>BOND
     1     2     1   2
     2     2     4   1
     3    13     2  am
     4     4     3  ar
     5     3    12  ar
     6     4     5  ar
     7     5     6  ar
     8     6     7  ar
     9     7     8  ar
    10    12     7  ar
    11     8     9  ar
    12    10     9  ar
    13    11    10  ar
    14    12    11  ar
    15    14    13   1
    16    15    14   1
    17    14    17   1
    18    15    16   2
    19    24    15  am
    20    17    18   1
    21    18    19   2
    22    18    20  am
    23    21    22   1
    24    23    21   1
    25    21    33   1
    26    23    24   1
    27    23    25   1
    28    25    26   1
    29    26    27  ar
    30    26    28  ar
    31    27    29  ar
    32    28    30  ar
    33    29    31  ar
    34    30    31  ar
    35    33    32   1
    36    32    34   1
    37    32    44   1
    38    34    35   1
    39    34    37   1
    40    35    36   2
    41    35    45  am
    42    37    38   1
    43    38    39   1
    44    38    43   1
    45    39    40   1
    46    40    41   1
    47    41    42   1
    48    42    43   1
    49    43    44   1
    50    45    46   1
    51    46    47   1
    52    46    48   1
    53    46    49   1
    54     5    50   1
    55     6    51   1
    56     8    52   1
    57     9    53   1
    58    10    54   1
    59    11    55   1
    60    13    56   1
    61    14    57   1
    62    17    58   1
    63    17    59   1
    64    20    60   1
    65    20    61   1
    66    21    62   1
    67    22    63   1
    68    23    64   1
    69    24    65   1
    70    25    66   1
    71    25    67   1
    72    27    68   1
    73    28    69   1
    74    29    70   1
    75    30    71   1
    76    31    72   1
    77    32    73   1
    78    33    74   1
    79    33    75   1
    80    34    76   1
    81    37    77   1
    82    37    78   1
    83    38    79   1
    84    39    80   1
    85    39    81   1
    86    40    82   1
    87    40    83   1
    88    41    84   1
    89    41    85   1
    90    42    86   1
    91    42    87   1
    92    43    88   1
    93    44    89   1
    94    44    90   1
    95    45    91   1
    96    47    92   1
    97    47    93   1
    98    47    94   1
    99    48    95   1
   100    48    96   1
   101    48    97   1
   102    49    98   1
   103    49    99   1
   104    49   100   1
@<TRIPOS>SUBSTRUCTURE
     1  ROC      2

