@<TRIPOS>MOLECULE
3cyx_ligand_056
   100   104
SMALL
GAST_HUCK
****
This file was generated by PARSER (from files_GN.cpp)

@<TRIPOS>ATOM
      1 O1         17.8335   22.2601   15.7463 O.2         1 ROC      -0.3762
      2 C1         17.8331   23.4844   15.6085 C.2         1 ROC       0.2293
      3 N1         19.1575   25.4595   15.6707 N.ar        1 ROC      -0.2737
      4 C2         18.8699   24.2205   16.1716 C.ar        1 ROC       0.1219
      5 C3         19.6933   23.7149   17.2092 C.ar        1 ROC      -0.0136
      6 C4         20.7752   24.4746   17.6812 C.ar        1 ROC      -0.0314
      7 C5         21.0552   25.7353   17.1176 C.ar        1 ROC       0.0097
      8 C6         22.1614   26.5163   17.5324 C.ar        1 ROC      -0.0444
      9 C7         22.3871   27.7790   16.9575 C.ar        1 ROC      -0.0546
     10 C8         21.5227   28.2648   15.9592 C.ar        1 ROC      -0.0545
     11 C9R        20.4313   27.4906   15.5289 C.ar        1 ROC      -0.0370
     12 C10        20.1951   26.2255   16.1033 C.ar        1 ROC       0.0527
     13 N2         16.8435   24.0896   14.9501 N.am        1 ROC      -0.2600
     14 C11        15.7402   23.4941   14.2292 C.3         1 ROC       0.1473
     15 C12        15.1922   22.3160   14.8995 C.2         1 ROC       0.2045
     16 O2         15.5881   21.1962   14.6004 O.2         1 ROC      -0.3943
     17 C13        16.1100   23.3428   12.7108 C.3         1 ROC       0.0773
     18 C14        15.6142   22.1589   12.0407 C.2         1 ROC       0.1780
     19 O3         16.3709   21.2151   11.8287 O.2         1 ROC      -0.3970
     20 N3         14.3467   22.0134   11.7126 N.am        1 ROC      -0.3007
     21 C15        12.6718   20.7274   16.2812 C.3         1 ROC       0.1194
     22 O4         11.7994   21.6222   15.5758 O.3         1 ROC      -0.3840
     23 C16        13.9118   21.5054   16.8596 C.3         1 ROC       0.0823
     24 N4         14.3710   22.4990   15.9298 N.am        1 ROC      -0.2772
     25 C17        13.6868   22.2120   18.2390 C.3         1 ROC       0.0066
     26 C18        14.8670   23.0268   18.6540 C.ar        1 ROC      -0.0408
     27 C19        14.9129   24.4168   18.4028 C.ar        1 ROC      -0.0603
     28 C20        15.9912   22.4121   19.2584 C.ar        1 ROC      -0.0603
     29 C21        16.0623   25.1678   18.7047 C.ar        1 ROC      -0.0686
     30 C22        17.1406   23.1654   19.5739 C.ar        1 ROC      -0.0686
     31 C23        17.1721   24.5422   19.3008 C.ar        1 ROC      -0.0687
     32 N5         11.4492   18.4747   16.9473 N.4         1 ROC       0.2562
     33 C24        11.8339   19.8894   17.3039 C.3         1 ROC      -0.0008
     34 C25        10.7182   17.7597   18.0716 C.3         1 ROC       0.0688
     35 C26        11.3955   17.8246   19.3653 C.2         1 ROC       0.2251
     36 O5         10.8015   18.2972   20.3341 O.2         1 ROC      -0.3909
     37 C27        10.4476   16.2608   17.7165 C.3         1 ROC       0.0113
     38 C28         9.6696   16.1211   16.3727 C.3         1 ROC      -0.0261
     39 C29         9.4060   14.6403   15.9616 C.3         1 ROC      -0.0494
     40 C30        10.6647   13.9125   15.4236 C.3         1 ROC      -0.0528
     41 C31        11.3674   14.7150   14.3004 C.3         1 ROC      -0.0526
     42 C32        11.6614   16.1777   14.7192 C.3         1 ROC      -0.0451
     43 C33        10.3814   16.9146   15.2298 C.3         1 ROC       0.0024
     44 C34        10.6684   18.3840   15.6700 C.3         1 ROC      -0.0266
     45 N6         12.6898   17.5188   19.4285 N.am        1 ROC      -0.2771
     46 C35        13.6119   17.7334   20.5161 C.3         1 ROC       0.0448
     47 C36        13.1415   16.9788   21.8037 C.3         1 ROC      -0.0396
     48 C37        13.7900   19.2650   20.7909 C.3         1 ROC      -0.0396
     49 C38        14.9838   17.1534   20.0374 C.3         1 ROC      -0.0396
     50 H1         19.5021   22.8014   17.6356 H           1 ROC       0.0729
     51 H2         21.3654   24.0971   18.4264 H           1 ROC       0.0774
     52 H3         22.8022   26.1754   18.2501 H           1 ROC       0.0657
     53 H4         23.1845   28.3467   17.2595 H           1 ROC       0.0652
     54 H5         21.6930   29.1837   15.5482 H           1 ROC       0.0657
     55 H6         19.8117   27.8484   14.7953 H           1 ROC       0.0653
     56 H7         16.8863   25.0651   14.9170 H           1 ROC       0.1882
     57 H8         14.9461   24.2510   14.2348 H           1 ROC       0.0826
     58 H9         17.2041   23.4051   12.6018 H           1 ROC       0.0551
     59 H10        15.7128   24.2142   12.1674 H           1 ROC       0.0551
     60 H11        14.0383   21.1919   11.3160 H           1 ROC       0.1814
     61 H12        13.7148   22.7245   11.9041 H           1 ROC       0.1814
     62 H13        13.0768   20.0347   15.5344 H           1 ROC       0.0672
     63 H14        11.4582   22.2418   16.2575 H           1 ROC       0.2101
     64 H15        14.7079   20.7631   17.0171 H           1 ROC       0.0606
     65 H16        14.1200   23.4175   16.1198 H           1 ROC       0.1857
     66 H17        13.5015   21.4720   19.0288 H           1 ROC       0.0449
     67 H18        12.7948   22.8441   18.1625 H           1 ROC       0.0449
     68 H19        14.1234   24.8864   17.9546 H           1 ROC       0.0557
     69 H20        15.9903   21.4101   19.4474 H           1 ROC       0.0557
     70 H21        16.0960   26.1683   18.4789 H           1 ROC       0.0599
     71 H22        17.9518   22.7052   19.9934 H           1 ROC       0.0599
     72 H23        18.0134   25.0865   19.5352 H           1 ROC       0.0559
     73 H24        12.3286   17.9686   16.7943 H           1 ROC       0.2057
     74 H25        10.9392   20.4564   17.5830 H           1 ROC       0.0841
     75 H26        12.4475   19.8287   18.1974 H           1 ROC       0.0841
     76 H27         9.7363   18.2345   18.1899 H           1 ROC       0.1100
     77 H28         9.8562   15.7983   18.5174 H           1 ROC       0.0348
     78 H29        11.3971   15.7257   17.6564 H           1 ROC       0.0348
     79 H30         8.6864   16.5818   16.5328 H           1 ROC       0.0309
     80 H31         8.6441   14.6338   15.1804 H           1 ROC       0.0268
     81 H32         9.0035   14.0882   16.8117 H           1 ROC       0.0268
     82 H33        10.3698   12.9364   15.0324 H           1 ROC       0.0265
     83 H34        11.3632   13.7362   16.2431 H           1 ROC       0.0265
     84 H35        10.7337   14.7187   13.4118 H           1 ROC       0.0265
     85 H36        12.3061   14.2213   14.0413 H           1 ROC       0.0265
     86 H37        12.0690   16.7136   13.8572 H           1 ROC       0.0270
     87 H38        12.4269   16.1749   15.4976 H           1 ROC       0.0270
     88 H39         9.6858   16.9656   14.3831 H           1 ROC       0.0355
     89 H40        11.2043   18.8688   14.8513 H           1 ROC       0.0818
     90 H41         9.7166   18.9090   15.7798 H           1 ROC       0.0818
     91 H42        13.0763   17.1577   18.6068 H           1 ROC       0.1859
     92 H43        13.9259   17.0014   22.5707 H           1 ROC       0.0254
     93 H44        12.9033   15.9351   21.5677 H           1 ROC       0.0254
     94 H45        12.2455   17.4469   22.2254 H           1 ROC       0.0254
     95 H46        14.5934   19.4229   21.5161 H           1 ROC       0.0254
     96 H47        12.8728   19.6932   21.1965 H           1 ROC       0.0254
     97 H48        14.0408   19.8147   19.8707 H           1 ROC       0.0254
     98 H49        15.7428   17.2437   20.8203 H           1 ROC       0.0254
     99 H50        15.3395   17.6879   19.1499 H           1 ROC       0.0254
    100 H51        14.8853   16.0954   19.7737 H           1 ROC       0.0254
@<TRIPOS>BOND
     1     2     1   2
     2     2     4   1
     3    13     2  am
     4     4     3  ar
     5     3    12  ar
     6     4     5  ar
     7     5     6  ar
     8     6     7  ar
     9     7     8  ar
    10    12     7  ar
    11     8     9  ar
    12    10     9  ar
    13    11    10  ar
    14    12    11  ar
    15    14    13   1
    16    15    14   1
    17    14    17   1
    18    15    16   2
    19    24    15  am
    20    17    18   1
    21    18    19   2
    22    18    20  am
    23    21    22   1
    24    23    21   1
    25    21    33   1
    26    23    24   1
    27    23    25   1
    28    25    26   1
    29    26    27  ar
    30    26    28  ar
    31    27    29  ar
    32    28    30  ar
    33    29    31  ar
    34    30    31  ar
    35    33    32   1
    36    32    34   1
    37    32    44   1
    38    34    35   1
    39    34    37   1
    40    35    36   2
    41    35    45  am
    42    37    38   1
    43    38    39   1
    44    38    43   1
    45    39    40   1
    46    40    41   1
    47    41    42   1
    48    42    43   1
    49    43    44   1
    50    45    46   1
    51    46    47   1
    52    46    48   1
    53    46    49   1
    54     5    50   1
    55     6    51   1
    56     8    52   1
    57     9    53   1
    58    10    54   1
    59    11    55   1
    60    13    56   1
    61    14    57   1
    62    17    58   1
    63    17    59   1
    64    20    60   1
    65    20    61   1
    66    21    62   1
    67    22    63   1
    68    23    64   1
    69    24    65   1
    70    25    66   1
    71    25    67   1
    72    27    68   1
    73    28    69   1
    74    29    70   1
    75    30    71   1
    76    31    72   1
    77    32    73   1
    78    33    74   1
    79    33    75   1
    80    34    76   1
    81    37    77   1
    82    37    78   1
    83    38    79   1
    84    39    80   1
    85    39    81   1
    86    40    82   1
    87    40    83   1
    88    41    84   1
    89    41    85   1
    90    42    86   1
    91    42    87   1
    92    43    88   1
    93    44    89   1
    94    44    90   1
    95    45    91   1
    96    47    92   1
    97    47    93   1
    98    47    94   1
    99    48    95   1
   100    48    96   1
   101    48    97   1
   102    49    98   1
   103    49    99   1
   104    49   100   1
@<TRIPOS>SUBSTRUCTURE
     1  ROC      2

