@<TRIPOS>MOLECULE
3cyx_ligand_034
   100   104
SMALL
GAST_HUCK
****
This file was generated by PARSER (from files_GN.cpp)

@<TRIPOS>ATOM
      1 O1         24.2165   26.5219   20.7550 O.2         1 ROC      -0.3762
      2 C1         24.3413   25.7250   19.8270 C.2         1 ROC       0.2293
      3 N1         25.0762   23.6263   18.9987 N.ar        1 ROC      -0.2737
      4 C2         24.9288   24.4821   20.0526 C.ar        1 ROC       0.1219
      5 C3         25.3589   24.0412   21.3296 C.ar        1 ROC      -0.0136
      6 C4         25.8756   22.7412   21.4875 C.ar        1 ROC      -0.0314
      7 C5         25.9729   21.8808   20.3758 C.ar        1 ROC       0.0097
      8 C6         26.4419   20.5497   20.4905 C.ar        1 ROC      -0.0444
      9 C7         26.5181   19.7255   19.3502 C.ar        1 ROC      -0.0546
     10 C8         26.1476   20.2293   18.0850 C.ar        1 ROC      -0.0545
     11 C9R        25.6726   21.5475   17.9627 C.ar        1 ROC      -0.0370
     12 C10        25.5708   22.3678   19.1042 C.ar        1 ROC       0.0527
     13 N2         23.8677   26.0169   18.6133 N.am        1 ROC      -0.2600
     14 C11        23.2887   27.2496   18.1564 C.3         1 ROC       0.1473
     15 C12        21.9038   27.0172   17.7623 C.2         1 ROC       0.2045
     16 O2         21.0420   27.7513   18.2309 O.2         1 ROC      -0.3943
     17 C13        24.1490   27.9293   17.0411 C.3         1 ROC       0.0773
     18 C14        24.6695   27.1376   15.9311 C.2         1 ROC       0.1780
     19 O3         25.1403   26.0171   16.0987 O.2         1 ROC      -0.3970
     20 N3         24.8543   27.6941   14.7537 N.am        1 ROC      -0.3007
     21 C15        19.4747   24.8952   17.5760 C.3         1 ROC       0.1194
     22 O4         19.9990   23.5706   17.5660 O.3         1 ROC      -0.3840
     23 C16        20.2010   25.7687   16.4891 C.3         1 ROC       0.0823
     24 N4         21.5500   26.0402   16.9351 N.am        1 ROC      -0.2772
     25 C17        20.2890   25.1881   15.0379 C.3         1 ROC       0.0066
     26 C18        19.0232   25.2109   14.2564 C.ar        1 ROC      -0.0408
     27 C19        18.6532   26.3619   13.5101 C.ar        1 ROC      -0.0603
     28 C20        18.1701   24.0775   14.1986 C.ar        1 ROC      -0.0603
     29 C21        17.4741   26.3842   12.7515 C.ar        1 ROC      -0.0686
     30 C22        16.9887   24.0976   13.4382 C.ar        1 ROC      -0.0686
     31 C23        16.6299   25.2553   12.7159 C.ar        1 ROC      -0.0687
     32 N5         17.2663   23.7141   18.1946 N.4         1 ROC       0.2562
     33 C24        17.9173   24.8968   17.5046 C.3         1 ROC      -0.0008
     34 C25        16.9775   23.8869   19.6706 C.3         1 ROC       0.0688
     35 C26        18.1254   24.2563   20.5035 C.2         1 ROC       0.2251
     36 O5         17.9426   25.1024   21.3692 O.2         1 ROC      -0.3909
     37 C27        16.3438   22.6032   20.3013 C.3         1 ROC       0.0113
     38 C28        15.1137   22.0711   19.5077 C.3         1 ROC      -0.0261
     39 C29        14.5458   20.7323   20.0796 C.3         1 ROC      -0.0494
     40 C30        15.4271   19.4952   19.7530 C.3         1 ROC      -0.0528
     41 C31        15.7365   19.3878   18.2389 C.3         1 ROC      -0.0526
     42 C32        16.3404   20.7005   17.6740 C.3         1 ROC      -0.0451
     43 C33        15.4370   21.9362   17.9881 C.3         1 ROC       0.0024
     44 C34        16.0393   23.2622   17.4490 C.3         1 ROC      -0.0266
     45 N6         19.2907   23.6280   20.3623 N.am        1 ROC      -0.2771
     46 C35        20.5165   23.6551   21.1363 C.3         1 ROC       0.0448
     47 C36        20.5688   24.6582   22.3338 C.3         1 ROC      -0.0396
     48 C37        21.6719   23.9946   20.1533 C.3         1 ROC      -0.0396
     49 C38        20.7436   22.2116   21.6846 C.3         1 ROC      -0.0396
     50 H1         25.2806   24.6430   22.1529 H           1 ROC       0.0729
     51 H2         26.1754   22.4262   22.4159 H           1 ROC       0.0774
     52 H3         26.7192   20.1709   21.4006 H           1 ROC       0.0657
     53 H4         26.8496   18.7633   19.4378 H           1 ROC       0.0652
     54 H5         26.2285   19.6333   17.2548 H           1 ROC       0.0657
     55 H6         25.4080   21.9063   17.0407 H           1 ROC       0.0653
     56 H7         23.9110   25.3136   17.9416 H           1 ROC       0.1882
     57 H8         23.2760   27.9618   18.9794 H           1 ROC       0.0826
     58 H9         25.0175   28.3961   17.5190 H           1 ROC       0.0551
     59 H10        23.5617   28.7554   16.6203 H           1 ROC       0.0551
     60 H11        25.3080   27.1974   14.0556 H           1 ROC       0.1814
     61 H12        24.5580   28.6034   14.5890 H           1 ROC       0.1814
     62 H13        19.7152   25.2909   18.5676 H           1 ROC       0.0672
     63 H14        20.9106   23.6657   17.2094 H           1 ROC       0.2101
     64 H15        19.6837   26.7302   16.4056 H           1 ROC       0.0606
     65 H16        22.2562   25.4566   16.6122 H           1 ROC       0.1857
     66 H17        20.6837   24.1734   15.0589 H           1 ROC       0.0449
     67 H18        21.0352   25.7719   14.4886 H           1 ROC       0.0449
     68 H19        19.2476   27.1943   13.5202 H           1 ROC       0.0557
     69 H20        18.4186   23.2211   14.7021 H           1 ROC       0.0557
     70 H21        17.2146   27.2217   12.2193 H           1 ROC       0.0599
     71 H22        16.3816   23.2706   13.4080 H           1 ROC       0.0599
     72 H23        15.7688   25.2714   12.1594 H           1 ROC       0.0559
     73 H24        17.9211   22.9364   18.1224 H           1 ROC       0.2057
     74 H25        17.6539   24.9356   16.4478 H           1 ROC       0.0841
     75 H26        17.5429   25.8380   17.9299 H           1 ROC       0.0841
     76 H27        16.2227   24.6790   19.7532 H           1 ROC       0.1100
     77 H28        16.0203   22.8267   21.3244 H           1 ROC       0.0348
     78 H29        17.0988   21.8158   20.3606 H           1 ROC       0.0348
     79 H30        14.3199   22.8204   19.6158 H           1 ROC       0.0309
     80 H31        13.5505   20.5683   19.6563 H           1 ROC       0.0268
     81 H32        14.4264   20.8144   21.1628 H           1 ROC       0.0268
     82 H33        14.9069   18.5905   20.0758 H           1 ROC       0.0265
     83 H34        16.3643   19.5501   20.3115 H           1 ROC       0.0265
     84 H35        14.8153   19.1550   17.6983 H           1 ROC       0.0265
     85 H36        16.4375   18.5647   18.0724 H           1 ROC       0.0265
     86 H37        16.4504   20.5939   16.5921 H           1 ROC       0.0270
     87 H38        17.3399   20.8415   18.0935 H           1 ROC       0.0270
     88 H39        14.4890   21.7780   17.4609 H           1 ROC       0.0355
     89 H40        16.2740   23.1045   16.3925 H           1 ROC       0.0818
     90 H41        15.2742   24.0441   17.4993 H           1 ROC       0.0818
     91 H42        19.3071   22.9929   19.6300 H           1 ROC       0.1859
     92 H43        21.5265   24.5958   22.8536 H           1 ROC       0.0254
     93 H44        19.7789   24.4341   23.0534 H           1 ROC       0.0254
     94 H45        20.4504   25.6873   21.9903 H           1 ROC       0.0254
     95 H46        22.6410   23.9128   20.6579 H           1 ROC       0.0254
     96 H47        21.5639   25.0132   19.7772 H           1 ROC       0.0254
     97 H48        21.6738   23.3133   19.2992 H           1 ROC       0.0254
     98 H49        21.7049   22.1314   22.1985 H           1 ROC       0.0254
     99 H50        20.7323   21.4810   20.8733 H           1 ROC       0.0254
    100 H51        19.9604   21.9488   22.3929 H           1 ROC       0.0254
@<TRIPOS>BOND
     1     2     1   2
     2     2     4   1
     3    13     2  am
     4     4     3  ar
     5     3    12  ar
     6     4     5  ar
     7     5     6  ar
     8     6     7  ar
     9     7     8  ar
    10    12     7  ar
    11     8     9  ar
    12    10     9  ar
    13    11    10  ar
    14    12    11  ar
    15    14    13   1
    16    15    14   1
    17    14    17   1
    18    15    16   2
    19    24    15  am
    20    17    18   1
    21    18    19   2
    22    18    20  am
    23    21    22   1
    24    23    21   1
    25    21    33   1
    26    23    24   1
    27    23    25   1
    28    25    26   1
    29    26    27  ar
    30    26    28  ar
    31    27    29  ar
    32    28    30  ar
    33    29    31  ar
    34    30    31  ar
    35    33    32   1
    36    32    34   1
    37    32    44   1
    38    34    35   1
    39    34    37   1
    40    35    36   2
    41    35    45  am
    42    37    38   1
    43    38    39   1
    44    38    43   1
    45    39    40   1
    46    40    41   1
    47    41    42   1
    48    42    43   1
    49    43    44   1
    50    45    46   1
    51    46    47   1
    52    46    48   1
    53    46    49   1
    54     5    50   1
    55     6    51   1
    56     8    52   1
    57     9    53   1
    58    10    54   1
    59    11    55   1
    60    13    56   1
    61    14    57   1
    62    17    58   1
    63    17    59   1
    64    20    60   1
    65    20    61   1
    66    21    62   1
    67    22    63   1
    68    23    64   1
    69    24    65   1
    70    25    66   1
    71    25    67   1
    72    27    68   1
    73    28    69   1
    74    29    70   1
    75    30    71   1
    76    31    72   1
    77    32    73   1
    78    33    74   1
    79    33    75   1
    80    34    76   1
    81    37    77   1
    82    37    78   1
    83    38    79   1
    84    39    80   1
    85    39    81   1
    86    40    82   1
    87    40    83   1
    88    41    84   1
    89    41    85   1
    90    42    86   1
    91    42    87   1
    92    43    88   1
    93    44    89   1
    94    44    90   1
    95    45    91   1
    96    47    92   1
    97    47    93   1
    98    47    94   1
    99    48    95   1
   100    48    96   1
   101    48    97   1
   102    49    98   1
   103    49    99   1
   104    49   100   1
@<TRIPOS>SUBSTRUCTURE
     1  ROC      2

