@<TRIPOS>MOLECULE
3cyx_ligand_041
   100   104
SMALL
GAST_HUCK
****
This file was generated by PARSER (from files_GN.cpp)

@<TRIPOS>ATOM
      1 O1         23.7438   23.6654   19.3042 O.2         1 ROC      -0.3762
      2 C1         23.5443   24.6731   18.6325 C.2         1 ROC       0.2293
      3 N1         24.3289   26.2755   17.0580 N.ar        1 ROC      -0.2737
      4 C2         24.5312   25.1213   17.7549 C.ar        1 ROC       0.1219
      5 C3         25.7533   24.4357   17.5460 C.ar        1 ROC      -0.0136
      6 C4         26.7011   24.9405   16.6358 C.ar        1 ROC      -0.0314
      7 C5         26.4395   26.1280   15.9236 C.ar        1 ROC       0.0097
      8 C6         27.3428   26.6533   14.9743 C.ar        1 ROC      -0.0444
      9 C7         27.0326   27.8426   14.2866 C.ar        1 ROC      -0.0546
     10 C8         25.8239   28.5169   14.5493 C.ar        1 ROC      -0.0545
     11 C9R        24.9155   27.9964   15.4902 C.ar        1 ROC      -0.0370
     12 C10        25.2140   26.7999   16.1693 C.ar        1 ROC       0.0527
     13 N2         22.3825   25.3181   18.7294 N.am        1 ROC      -0.2600
     14 C11        21.2502   25.0006   19.5684 C.3         1 ROC       0.1473
     15 C12        20.1115   24.4914   18.7980 C.2         1 ROC       0.2045
     16 O2         20.0086   24.7101   17.5990 O.2         1 ROC      -0.3943
     17 C13        20.8650   26.2131   20.4827 C.3         1 ROC       0.0773
     18 C14        20.6393   27.5131   19.8689 C.2         1 ROC       0.1780
     19 O3         20.8940   27.7465   18.6971 O.2         1 ROC      -0.3970
     20 N3         20.2095   28.5259   20.5897 N.am        1 ROC      -0.3007
     21 C15        16.8678   24.1384   18.8559 C.3         1 ROC       0.1194
     22 O4         15.6128   23.6139   19.2814 O.3         1 ROC      -0.3840
     23 C16        18.0403   23.0806   18.8984 C.3         1 ROC       0.0823
     24 N4         19.2364   23.7026   19.4109 N.am        1 ROC      -0.2772
     25 C17        17.8151   21.8406   19.8354 C.3         1 ROC       0.0066
     26 C18        16.6284   20.9780   19.5701 C.ar        1 ROC      -0.0408
     27 C19        16.5598   20.1558   18.4196 C.ar        1 ROC      -0.0603
     28 C20        15.5376   20.9590   20.4754 C.ar        1 ROC      -0.0603
     29 C21        15.3936   19.4217   18.1311 C.ar        1 ROC      -0.0686
     30 C22        14.3705   20.2281   20.1857 C.ar        1 ROC      -0.0686
     31 C23        14.2910   19.4743   19.0034 C.ar        1 ROC      -0.0687
     32 N5         16.1302   24.2603   16.2252 N.4         1 ROC       0.2562
     33 C24        16.6204   24.9074   17.5117 C.3         1 ROC      -0.0008
     34 C25        17.1614   24.1516   15.1209 C.3         1 ROC       0.0688
     35 C26        17.7295   25.4543   14.7431 C.2         1 ROC       0.2251
     36 O5         16.9565   26.3348   14.3856 O.2         1 ROC      -0.3909
     37 C27        16.5819   23.5147   13.8118 C.3         1 ROC       0.0113
     38 C28        15.8704   22.1557   14.0647 C.3         1 ROC      -0.0261
     39 C29        15.3058   21.4970   12.7638 C.3         1 ROC      -0.0494
     40 C30        14.0206   22.1798   12.2284 C.3         1 ROC      -0.0528
     41 C31        12.9419   22.3186   13.3347 C.3         1 ROC      -0.0526
     42 C32        13.4875   23.0124   14.6119 C.3         1 ROC      -0.0451
     43 C33        14.7678   22.3078   15.1573 C.3         1 ROC       0.0024
     44 C34        15.3474   22.9969   16.4304 C.3         1 ROC      -0.0266
     45 N6         19.0410   25.6623   14.7996 N.am        1 ROC      -0.2771
     46 C35        19.8565   26.7939   14.4067 C.3         1 ROC       0.0448
     47 C36        20.9841   26.2068   13.5069 C.3         1 ROC      -0.0396
     48 C37        20.4833   27.4013   15.6954 C.3         1 ROC      -0.0396
     49 C38        19.1276   27.9361   13.6299 C.3         1 ROC      -0.0396
     50 H1         25.9661   23.5681   18.0410 H           1 ROC       0.0729
     51 H2         27.5784   24.4362   16.4918 H           1 ROC       0.0774
     52 H3         28.2255   26.1758   14.7725 H           1 ROC       0.0657
     53 H4         27.6873   28.2190   13.5965 H           1 ROC       0.0652
     54 H5         25.6089   29.3846   14.0536 H           1 ROC       0.0657
     55 H6         24.0376   28.4907   15.6757 H           1 ROC       0.0653
     56 H7         22.2687   26.0811   18.1455 H           1 ROC       0.1882
     57 H8         21.5390   24.1978   20.2572 H           1 ROC       0.0826
     58 H9         21.6673   26.3477   21.2111 H           1 ROC       0.0551
     59 H10        19.9673   25.9514   21.0488 H           1 ROC       0.0551
     60 H11        20.0911   29.3923   20.1724 H           1 ROC       0.1814
     61 H12        20.0056   28.4083   21.5312 H           1 ROC       0.1814
     62 H13        17.0985   24.9116   19.6027 H           1 ROC       0.0672
     63 H14        15.5650   23.7662   20.2550 H           1 ROC       0.2101
     64 H15        18.2342   22.7024   17.8939 H           1 ROC       0.0606
     65 H16        19.4328   23.5185   20.3442 H           1 ROC       0.1857
     66 H17        17.7635   22.2147   20.8610 H           1 ROC       0.0449
     67 H18        18.6977   21.1966   19.7858 H           1 ROC       0.0449
     68 H19        17.3488   20.1150   17.7695 H           1 ROC       0.0557
     69 H20        15.5651   21.5065   21.3394 H           1 ROC       0.0557
     70 H21        15.3453   18.8539   17.2848 H           1 ROC       0.0599
     71 H22        13.5767   20.2529   20.8307 H           1 ROC       0.0599
     72 H23        13.4415   18.9511   18.7842 H           1 ROC       0.0559
     73 H24        15.4341   24.9236   15.8749 H           1 ROC       0.2057
     74 H25        17.5275   25.4848   17.3300 H           1 ROC       0.0841
     75 H26        15.8628   25.6577   17.7412 H           1 ROC       0.0841
     76 H27        17.9619   23.4905   15.4721 H           1 ROC       0.1100
     77 H28        17.4004   23.3536   13.1045 H           1 ROC       0.0348
     78 H29        15.8768   24.2021   13.3362 H           1 ROC       0.0348
     79 H30        16.6303   21.4707   14.4547 H           1 ROC       0.0309
     80 H31        15.0736   20.4482   12.9708 H           1 ROC       0.0268
     81 H32        16.0661   21.5098   11.9786 H           1 ROC       0.0268
     82 H33        13.6131   21.5856   11.4038 H           1 ROC       0.0265
     83 H34        14.2668   23.1654   11.8284 H           1 ROC       0.0265
     84 H35        12.5700   21.3209   13.5948 H           1 ROC       0.0265
     85 H36        12.0982   22.8931   12.9431 H           1 ROC       0.0265
     86 H37        12.7046   22.9949   15.3750 H           1 ROC       0.0270
     87 H38        13.7043   24.0573   14.3899 H           1 ROC       0.0270
     88 H39        14.4588   21.2999   15.4628 H           1 ROC       0.0355
     89 H40        14.5103   23.2003   17.1029 H           1 ROC       0.0818
     90 H41        15.9983   22.2730   16.9180 H           1 ROC       0.0818
     91 H42        19.5534   24.9111   15.1391 H           1 ROC       0.1859
     92 H43        21.6770   26.9865   13.1813 H           1 ROC       0.0254
     93 H44        20.5459   25.7362   12.6237 H           1 ROC       0.0254
     94 H45        21.5593   25.4469   14.0458 H           1 ROC       0.0254
     95 H46        21.1016   28.2718   15.4628 H           1 ROC       0.0254
     96 H47        21.1099   26.6679   16.2057 H           1 ROC       0.0254
     97 H48        19.6873   27.7137   16.3736 H           1 ROC       0.0254
     98 H49        19.8421   28.7013   13.2951 H           1 ROC       0.0254
     99 H50        18.3982   28.4295   14.2701 H           1 ROC       0.0254
    100 H51        18.6126   27.5401   12.7580 H           1 ROC       0.0254
@<TRIPOS>BOND
     1     2     1   2
     2     2     4   1
     3    13     2  am
     4     4     3  ar
     5     3    12  ar
     6     4     5  ar
     7     5     6  ar
     8     6     7  ar
     9     7     8  ar
    10    12     7  ar
    11     8     9  ar
    12    10     9  ar
    13    11    10  ar
    14    12    11  ar
    15    14    13   1
    16    15    14   1
    17    14    17   1
    18    15    16   2
    19    24    15  am
    20    17    18   1
    21    18    19   2
    22    18    20  am
    23    21    22   1
    24    23    21   1
    25    21    33   1
    26    23    24   1
    27    23    25   1
    28    25    26   1
    29    26    27  ar
    30    26    28  ar
    31    27    29  ar
    32    28    30  ar
    33    29    31  ar
    34    30    31  ar
    35    33    32   1
    36    32    34   1
    37    32    44   1
    38    34    35   1
    39    34    37   1
    40    35    36   2
    41    35    45  am
    42    37    38   1
    43    38    39   1
    44    38    43   1
    45    39    40   1
    46    40    41   1
    47    41    42   1
    48    42    43   1
    49    43    44   1
    50    45    46   1
    51    46    47   1
    52    46    48   1
    53    46    49   1
    54     5    50   1
    55     6    51   1
    56     8    52   1
    57     9    53   1
    58    10    54   1
    59    11    55   1
    60    13    56   1
    61    14    57   1
    62    17    58   1
    63    17    59   1
    64    20    60   1
    65    20    61   1
    66    21    62   1
    67    22    63   1
    68    23    64   1
    69    24    65   1
    70    25    66   1
    71    25    67   1
    72    27    68   1
    73    28    69   1
    74    29    70   1
    75    30    71   1
    76    31    72   1
    77    32    73   1
    78    33    74   1
    79    33    75   1
    80    34    76   1
    81    37    77   1
    82    37    78   1
    83    38    79   1
    84    39    80   1
    85    39    81   1
    86    40    82   1
    87    40    83   1
    88    41    84   1
    89    41    85   1
    90    42    86   1
    91    42    87   1
    92    43    88   1
    93    44    89   1
    94    44    90   1
    95    45    91   1
    96    47    92   1
    97    47    93   1
    98    47    94   1
    99    48    95   1
   100    48    96   1
   101    48    97   1
   102    49    98   1
   103    49    99   1
   104    49   100   1
@<TRIPOS>SUBSTRUCTURE
     1  ROC      2

