@<TRIPOS>MOLECULE
3cyx_ligand_015
   100   104
SMALL
GAST_HUCK
****
This file was generated by PARSER (from files_GN.cpp)

@<TRIPOS>ATOM
      1 O1         19.7577   22.2496   19.2047 O.2         1 ROC      -0.3762
      2 C1         19.5130   23.2117   18.4870 C.2         1 ROC       0.2293
      3 N1         20.2534   25.2065   17.4074 N.ar        1 ROC      -0.2737
      4 C2         20.5093   24.1571   18.2391 C.ar        1 ROC       0.1219
      5 C3         21.7916   24.0915   18.8389 C.ar        1 ROC      -0.0136
      6 C4         22.7474   25.0892   18.5763 C.ar        1 ROC      -0.0314
      7 C5         22.4387   26.1571   17.7095 C.ar        1 ROC       0.0097
      8 C6         23.3682   27.1794   17.4184 C.ar        1 ROC      -0.0444
      9 C7         23.0154   28.2247   16.5415 C.ar        1 ROC      -0.0546
     10 C8         21.7401   28.2509   15.9539 C.ar        1 ROC      -0.0545
     11 C9R        20.8038   27.2395   16.2417 C.ar        1 ROC      -0.0370
     12 C10        21.1474   26.1895   17.1164 C.ar        1 ROC       0.0527
     13 N2         18.2890   23.3647   17.9862 N.am        1 ROC      -0.2600
     14 C11        17.1194   22.5727   18.2692 C.3         1 ROC       0.1473
     15 C12        16.6353   21.9957   17.0150 C.2         1 ROC       0.2045
     16 O2         17.3244   21.1289   16.4899 O.2         1 ROC      -0.3943
     17 C13        16.1083   23.4767   19.0502 C.3         1 ROC       0.0773
     18 C14        14.9483   22.7560   19.5463 C.2         1 ROC       0.1780
     19 O3         13.8525   22.8735   19.0150 O.2         1 ROC      -0.3970
     20 N3         15.0433   21.9920   20.6153 N.am        1 ROC      -0.3007
     21 C15        14.2330   20.4293   15.5595 C.3         1 ROC       0.1194
     22 O4         14.6459   19.4803   14.5735 O.3         1 ROC      -0.3840
     23 C16        14.8423   21.8650   15.2759 C.3         1 ROC       0.0823
     24 N4         15.4972   22.3935   16.4423 N.am        1 ROC      -0.2772
     25 C17        15.7181   21.9685   13.9784 C.3         1 ROC       0.0066
     26 C18        16.0272   23.3454   13.4824 C.ar        1 ROC      -0.0408
     27 C19        16.7714   24.2576   14.2661 C.ar        1 ROC      -0.0603
     28 C20        15.6643   23.7358   12.1658 C.ar        1 ROC      -0.0603
     29 C21        17.1245   25.5263   13.7658 C.ar        1 ROC      -0.0686
     30 C22        16.0297   24.9977   11.6579 C.ar        1 ROC      -0.0686
     31 C23        16.7550   25.8956   12.4588 C.ar        1 ROC      -0.0687
     32 N5         12.0291   19.0664   15.4465 N.4         1 ROC       0.2562
     33 C24        12.6775   20.4049   15.7418 C.3         1 ROC      -0.0008
     34 C25        10.9220   18.6546   16.3919 C.3         1 ROC       0.0688
     35 C26        11.3623   18.5541   17.7866 C.2         1 ROC       0.2251
     36 O5         10.6786   19.0695   18.6593 O.2         1 ROC      -0.3909
     37 C27        10.2875   17.2763   16.0089 C.3         1 ROC       0.0113
     38 C28         9.8407   17.2145   14.5180 C.3         1 ROC      -0.0261
     39 C29         9.2456   15.8307   14.1065 C.3         1 ROC      -0.0494
     40 C30        10.3168   14.7198   13.9379 C.3         1 ROC      -0.0528
     41 C31        11.4635   15.1604   12.9940 C.3         1 ROC      -0.0526
     42 C32        12.0882   16.5140   13.4269 C.3         1 ROC      -0.0451
     43 C33        11.0047   17.6277   13.5652 C.3         1 ROC       0.0024
     44 C34        11.5922   18.9978   14.0062 C.3         1 ROC      -0.0266
     45 N6         12.4559   17.8585   18.0791 N.am        1 ROC      -0.2771
     46 C35        13.0127   17.5176   19.3659 C.3         1 ROC       0.0448
     47 C36        14.3690   16.8023   19.0717 C.3         1 ROC      -0.0396
     48 C37        12.0784   16.5247   20.1263 C.3         1 ROC      -0.0396
     49 C38        13.2846   18.7905   20.2272 C.3         1 ROC      -0.0396
     50 H1         22.0387   23.3309   19.4756 H           1 ROC       0.0729
     51 H2         23.6668   25.0283   19.0216 H           1 ROC       0.0774
     52 H3         24.3016   27.1732   17.8401 H           1 ROC       0.0657
     53 H4         23.6892   28.9663   16.3378 H           1 ROC       0.0652
     54 H5         21.4902   29.0124   15.3183 H           1 ROC       0.0657
     55 H6         19.8744   27.2738   15.8167 H           1 ROC       0.0653
     56 H7         18.1488   24.1350   17.4134 H           1 ROC       0.1882
     57 H8         17.3659   21.7354   18.9335 H           1 ROC       0.0826
     58 H9         15.7912   24.3078   18.4127 H           1 ROC       0.0551
     59 H10        16.6147   23.9291   19.9107 H           1 ROC       0.0551
     60 H11        14.2552   21.5353   20.9554 H           1 ROC       0.1814
     61 H12        15.8964   21.9019   21.0771 H           1 ROC       0.1814
     62 H13        14.6510   20.0346   16.4893 H           1 ROC       0.0672
     63 H14        14.5547   18.5972   14.9912 H           1 ROC       0.2101
     64 H15        14.0066   22.5498   15.1099 H           1 ROC       0.0606
     65 H16        15.0323   23.1258   16.8699 H           1 ROC       0.1857
     66 H17        15.1933   21.4267   13.1822 H           1 ROC       0.0449
     67 H18        16.6621   21.4479   14.1419 H           1 ROC       0.0449
     68 H19        17.0822   24.0061   15.2056 H           1 ROC       0.0557
     69 H20        15.1414   23.0994   11.5587 H           1 ROC       0.0557
     70 H21        17.6623   26.1760   14.3451 H           1 ROC       0.0599
     71 H22        15.7677   25.2629   10.7037 H           1 ROC       0.0599
     72 H23        17.0185   26.8161   12.0907 H           1 ROC       0.0559
     73 H24        12.7547   18.3545   15.5618 H           1 ROC       0.2057
     74 H25        12.2261   21.1801   15.1192 H           1 ROC       0.0841
     75 H26        12.4812   20.7238   16.7677 H           1 ROC       0.0841
     76 H27        10.1259   19.4069   16.3245 H           1 ROC       0.1100
     77 H28         9.4109   17.0958   16.6417 H           1 ROC       0.0348
     78 H29        11.0036   16.4733   16.2029 H           1 ROC       0.0348
     79 H30         9.0341   17.9486   14.4012 H           1 ROC       0.0309
     80 H31         8.7216   15.9475   13.1533 H           1 ROC       0.0268
     81 H32         8.5065   15.5092   14.8438 H           1 ROC       0.0268
     82 H33         9.8424   13.8244   13.5285 H           1 ROC       0.0265
     83 H34        10.7321   14.4549   14.9138 H           1 ROC       0.0265
     84 H35        11.0764   15.2534   11.9751 H           1 ROC       0.0265
     85 H36        12.2412   14.3916   12.9861 H           1 ROC       0.0265
     86 H37        12.8241   16.8140   12.6758 H           1 ROC       0.0270
     87 H38        12.6180   16.3790   14.3728 H           1 ROC       0.0270
     88 H39        10.5757   17.7757   12.5662 H           1 ROC       0.0355
     89 H40        12.4324   19.2310   13.3483 H           1 ROC       0.0818
     90 H41        10.8271   19.7603   13.8260 H           1 ROC       0.0818
     91 H42        12.9403   17.5136   17.3168 H           1 ROC       0.1859
     92 H43        14.8530   16.4807   19.9968 H           1 ROC       0.0254
     93 H44        15.0544   17.4704   18.5429 H           1 ROC       0.0254
     94 H45        14.2118   15.9185   18.4469 H           1 ROC       0.0254
     95 H46        12.5458   16.1845   21.0533 H           1 ROC       0.0254
     96 H47        11.8662   15.6494   19.5065 H           1 ROC       0.0254
     97 H48        11.1283   17.0002   20.3816 H           1 ROC       0.0254
     98 H49        13.8458   18.5343   21.1316 H           1 ROC       0.0254
     99 H50        12.3522   19.2658   20.5366 H           1 ROC       0.0254
    100 H51        13.8667   19.5158   19.6549 H           1 ROC       0.0254
@<TRIPOS>BOND
     1     2     1   2
     2     2     4   1
     3    13     2  am
     4     4     3  ar
     5     3    12  ar
     6     4     5  ar
     7     5     6  ar
     8     6     7  ar
     9     7     8  ar
    10    12     7  ar
    11     8     9  ar
    12    10     9  ar
    13    11    10  ar
    14    12    11  ar
    15    14    13   1
    16    15    14   1
    17    14    17   1
    18    15    16   2
    19    24    15  am
    20    17    18   1
    21    18    19   2
    22    18    20  am
    23    21    22   1
    24    23    21   1
    25    21    33   1
    26    23    24   1
    27    23    25   1
    28    25    26   1
    29    26    27  ar
    30    26    28  ar
    31    27    29  ar
    32    28    30  ar
    33    29    31  ar
    34    30    31  ar
    35    33    32   1
    36    32    34   1
    37    32    44   1
    38    34    35   1
    39    34    37   1
    40    35    36   2
    41    35    45  am
    42    37    38   1
    43    38    39   1
    44    38    43   1
    45    39    40   1
    46    40    41   1
    47    41    42   1
    48    42    43   1
    49    43    44   1
    50    45    46   1
    51    46    47   1
    52    46    48   1
    53    46    49   1
    54     5    50   1
    55     6    51   1
    56     8    52   1
    57     9    53   1
    58    10    54   1
    59    11    55   1
    60    13    56   1
    61    14    57   1
    62    17    58   1
    63    17    59   1
    64    20    60   1
    65    20    61   1
    66    21    62   1
    67    22    63   1
    68    23    64   1
    69    24    65   1
    70    25    66   1
    71    25    67   1
    72    27    68   1
    73    28    69   1
    74    29    70   1
    75    30    71   1
    76    31    72   1
    77    32    73   1
    78    33    74   1
    79    33    75   1
    80    34    76   1
    81    37    77   1
    82    37    78   1
    83    38    79   1
    84    39    80   1
    85    39    81   1
    86    40    82   1
    87    40    83   1
    88    41    84   1
    89    41    85   1
    90    42    86   1
    91    42    87   1
    92    43    88   1
    93    44    89   1
    94    44    90   1
    95    45    91   1
    96    47    92   1
    97    47    93   1
    98    47    94   1
    99    48    95   1
   100    48    96   1
   101    48    97   1
   102    49    98   1
   103    49    99   1
   104    49   100   1
@<TRIPOS>SUBSTRUCTURE
     1  ROC      2

