@<TRIPOS>MOLECULE
3cyx_ligand_076
   100   104
SMALL
GAST_HUCK
****
This file was generated by PARSER (from files_GN.cpp)

@<TRIPOS>ATOM
      1 O1         20.4620   23.3680   19.8793 O.2         1 ROC      -0.3762
      2 C1         19.7784   23.6739   18.9068 C.2         1 ROC       0.2293
      3 N1         19.8402   24.4687   16.6698 N.ar        1 ROC      -0.2737
      4 C2         20.3153   24.5246   17.9445 C.ar        1 ROC       0.1219
      5 C3         21.3624   25.4362   18.2235 C.ar        1 ROC      -0.0136
      6 C4         21.8570   26.2674   17.1990 C.ar        1 ROC      -0.0314
      7 C5         21.3448   26.1689   15.8912 C.ar        1 ROC       0.0097
      8 C6         21.8370   26.9560   14.8250 C.ar        1 ROC      -0.0444
      9 C7         21.3123   26.7975   13.5299 C.ar        1 ROC      -0.0546
     10 C8         20.2898   25.8606   13.2937 C.ar        1 ROC      -0.0545
     11 C9R        19.7850   25.0806   14.3503 C.ar        1 ROC      -0.0370
     12 C10        20.3070   25.2319   15.6474 C.ar        1 ROC       0.0527
     13 N2         18.5324   23.2301   18.7921 N.am        1 ROC      -0.2600
     14 C11        17.8172   22.3536   19.6894 C.3         1 ROC       0.1473
     15 C12        17.0922   21.3602   18.8894 C.2         1 ROC       0.2045
     16 O2         17.7542   20.5373   18.2674 O.2         1 ROC      -0.3943
     17 C13        16.9180   23.2053   20.6477 C.3         1 ROC       0.0773
     18 C14        17.5583   23.9459   21.7258 C.2         1 ROC       0.1780
     19 O3         18.7610   23.9025   21.9469 O.2         1 ROC      -0.3970
     20 N3         16.7999   24.6050   22.5787 N.am        1 ROC      -0.3007
     21 C15        13.4346   20.8654   18.2692 C.3         1 ROC       0.1194
     22 O4         13.1145   21.3756   19.5747 O.3         1 ROC      -0.3840
     23 C16        14.9036   20.3112   18.2564 C.3         1 ROC       0.0823
     24 N4         15.7611   21.3111   18.8480 N.am        1 ROC      -0.2772
     25 C17        15.1113   18.8922   18.9026 C.3         1 ROC       0.0066
     26 C18        14.4532   18.5780   20.2067 C.ar        1 ROC      -0.0408
     27 C19        13.7686   17.3537   20.3808 C.ar        1 ROC      -0.0603
     28 C20        14.5536   19.4438   21.3259 C.ar        1 ROC      -0.0603
     29 C21        13.1192   17.0451   21.5910 C.ar        1 ROC      -0.0686
     30 C22        13.8943   19.1482   22.5345 C.ar        1 ROC      -0.0686
     31 C23        13.1618   17.9562   22.6626 C.ar        1 ROC      -0.0687
     32 N5         12.2826   19.2134   16.5358 N.4         1 ROC       0.2562
     33 C24        12.2602   19.9127   17.8759 C.3         1 ROC      -0.0008
     34 C25        11.0719   18.3107   16.3326 C.3         1 ROC       0.0688
     35 C26        10.9120   17.2110   17.3012 C.2         1 ROC       0.2251
     36 O5         11.8814   16.8786   17.9748 O.2         1 ROC      -0.3909
     37 C27        11.0562   17.6548   14.9102 C.3         1 ROC       0.0113
     38 C28        11.2007   18.6946   13.7663 C.3         1 ROC      -0.0261
     39 C29        11.2239   18.0368   12.3524 C.3         1 ROC      -0.0494
     40 C30        12.5562   17.3049   12.0307 C.3         1 ROC      -0.0528
     41 C31        13.7849   18.2198   12.2664 C.3         1 ROC      -0.0526
     42 C32        13.7930   18.8425   13.6838 C.3         1 ROC      -0.0451
     43 C33        12.4565   19.5912   13.9888 C.3         1 ROC       0.0024
     44 C34        12.4264   20.2089   15.4169 C.3         1 ROC      -0.0266
     45 N6          9.7912   16.4967   17.2778 N.am        1 ROC      -0.2771
     46 C35         9.4157   15.2644   17.9367 C.3         1 ROC       0.0448
     47 C36         8.1251   15.5876   18.7508 C.3         1 ROC      -0.0396
     48 C37        10.4702   14.6218   18.8967 C.3         1 ROC      -0.0396
     49 C38         9.0682   14.2441   16.8147 C.3         1 ROC      -0.0396
     50 H1         21.7515   25.5225   19.1662 H           1 ROC       0.0729
     51 H2         22.6002   26.9367   17.4157 H           1 ROC       0.0774
     52 H3         22.5829   27.6398   14.9840 H           1 ROC       0.0657
     53 H4         21.6718   27.3699   12.7627 H           1 ROC       0.0652
     54 H5         19.9146   25.7453   12.3514 H           1 ROC       0.0657
     55 H6         19.0466   24.3984   14.1647 H           1 ROC       0.0653
     56 H7         18.0223   23.5708   18.0350 H           1 ROC       0.1882
     57 H8         18.5114   21.7926   20.3197 H           1 ROC       0.0826
     58 H9         16.2104   22.5357   21.1437 H           1 ROC       0.0551
     59 H10        16.3444   23.9189   20.0440 H           1 ROC       0.0551
     60 H11        17.1885   25.0532   23.3458 H           1 ROC       0.1814
     61 H12        15.8384   24.6181   22.4532 H           1 ROC       0.1814
     62 H13        13.3938   21.7288   17.5957 H           1 ROC       0.0672
     63 H14        13.2473   22.3665   19.5002 H           1 ROC       0.2101
     64 H15        15.1904   20.2217   17.2024 H           1 ROC       0.0606
     65 H16        15.3045   22.0284   19.3005 H           1 ROC       0.1857
     66 H17        16.1834   18.7200   19.0444 H           1 ROC       0.0449
     67 H18        14.7967   18.1581   18.1534 H           1 ROC       0.0449
     68 H19        13.7448   16.6624   19.6334 H           1 ROC       0.0557
     69 H20        15.0836   20.3175   21.2634 H           1 ROC       0.0557
     70 H21        12.6147   16.1576   21.6920 H           1 ROC       0.0599
     71 H22        13.9443   19.8020   23.3213 H           1 ROC       0.0599
     72 H23        12.6916   17.7304   23.5426 H           1 ROC       0.0559
     73 H24        13.1103   18.6107   16.5216 H           1 ROC       0.2057
     74 H25        11.3304   20.5052   17.9388 H           1 ROC       0.0841
     75 H26        12.1992   19.1594   18.6723 H           1 ROC       0.0841
     76 H27        10.1747   18.9409   16.4119 H           1 ROC       0.1100
     77 H28        10.1129   17.1226   14.7616 H           1 ROC       0.0348
     78 H29        11.8644   16.9201   14.8462 H           1 ROC       0.0348
     79 H30        10.3196   19.3386   13.8029 H           1 ROC       0.0309
     80 H31        11.0728   18.8163   11.6003 H           1 ROC       0.0268
     81 H32        10.3942   17.3312   12.2577 H           1 ROC       0.0268
     82 H33        12.5432   16.9814   10.9846 H           1 ROC       0.0265
     83 H34        12.6443   16.4077   12.6475 H           1 ROC       0.0265
     84 H35        13.7766   19.0278   11.5307 H           1 ROC       0.0265
     85 H36        14.6966   17.6393   12.1253 H           1 ROC       0.0265
     86 H37        14.6319   19.5424   13.7541 H           1 ROC       0.0270
     87 H38        13.9603   18.0564   14.4193 H           1 ROC       0.0270
     88 H39        12.3966   20.4304   13.2804 H           1 ROC       0.0355
     89 H40        13.3535   20.7756   15.5306 H           1 ROC       0.0818
     90 H41        11.6013   20.9359   15.4574 H           1 ROC       0.0818
     91 H42         9.0971   16.8567   16.7027 H           1 ROC       0.1859
     92 H43         7.7383   14.6987   19.2530 H           1 ROC       0.0254
     93 H44         7.3372   15.9701   18.0958 H           1 ROC       0.0254
     94 H45         8.3268   16.3488   19.5090 H           1 ROC       0.0254
     95 H46        10.0558   13.7347   19.3935 H           1 ROC       0.0254
     96 H47        10.7611   15.3257   19.6755 H           1 ROC       0.0254
     97 H48        11.3622   14.3153   18.3490 H           1 ROC       0.0254
     98 H49         8.7038   13.3060   17.2364 H           1 ROC       0.0254
     99 H50         9.9555   14.0301   16.2145 H           1 ROC       0.0254
    100 H51         8.2992   14.6416   16.1507 H           1 ROC       0.0254
@<TRIPOS>BOND
     1     2     1   2
     2     2     4   1
     3    13     2  am
     4     4     3  ar
     5     3    12  ar
     6     4     5  ar
     7     5     6  ar
     8     6     7  ar
     9     7     8  ar
    10    12     7  ar
    11     8     9  ar
    12    10     9  ar
    13    11    10  ar
    14    12    11  ar
    15    14    13   1
    16    15    14   1
    17    14    17   1
    18    15    16   2
    19    24    15  am
    20    17    18   1
    21    18    19   2
    22    18    20  am
    23    21    22   1
    24    23    21   1
    25    21    33   1
    26    23    24   1
    27    23    25   1
    28    25    26   1
    29    26    27  ar
    30    26    28  ar
    31    27    29  ar
    32    28    30  ar
    33    29    31  ar
    34    30    31  ar
    35    33    32   1
    36    32    34   1
    37    32    44   1
    38    34    35   1
    39    34    37   1
    40    35    36   2
    41    35    45  am
    42    37    38   1
    43    38    39   1
    44    38    43   1
    45    39    40   1
    46    40    41   1
    47    41    42   1
    48    42    43   1
    49    43    44   1
    50    45    46   1
    51    46    47   1
    52    46    48   1
    53    46    49   1
    54     5    50   1
    55     6    51   1
    56     8    52   1
    57     9    53   1
    58    10    54   1
    59    11    55   1
    60    13    56   1
    61    14    57   1
    62    17    58   1
    63    17    59   1
    64    20    60   1
    65    20    61   1
    66    21    62   1
    67    22    63   1
    68    23    64   1
    69    24    65   1
    70    25    66   1
    71    25    67   1
    72    27    68   1
    73    28    69   1
    74    29    70   1
    75    30    71   1
    76    31    72   1
    77    32    73   1
    78    33    74   1
    79    33    75   1
    80    34    76   1
    81    37    77   1
    82    37    78   1
    83    38    79   1
    84    39    80   1
    85    39    81   1
    86    40    82   1
    87    40    83   1
    88    41    84   1
    89    41    85   1
    90    42    86   1
    91    42    87   1
    92    43    88   1
    93    44    89   1
    94    44    90   1
    95    45    91   1
    96    47    92   1
    97    47    93   1
    98    47    94   1
    99    48    95   1
   100    48    96   1
   101    48    97   1
   102    49    98   1
   103    49    99   1
   104    49   100   1
@<TRIPOS>SUBSTRUCTURE
     1  ROC      2

