@<TRIPOS>MOLECULE
3cyx_ligand_009
   100   104
SMALL
GAST_HUCK
****
This file was generated by PARSER (from files_GN.cpp)

@<TRIPOS>ATOM
      1 O1         18.3719   21.7478   18.1105 O.2         1 ROC      -0.3762
      2 C1         18.0183   22.7487   17.4960 C.2         1 ROC       0.2293
      3 N1         18.6563   24.7107   16.3338 N.ar        1 ROC      -0.2737
      4 C2         18.9398   23.7615   17.2652 C.ar        1 ROC       0.1219
      5 C3         20.1525   23.8824   17.9885 C.ar        1 ROC      -0.0136
      6 C4         21.0082   24.9742   17.7463 C.ar        1 ROC      -0.0314
      7 C5         20.6718   25.9353   16.7718 C.ar        1 ROC       0.0097
      8 C6         21.4929   27.0506   16.4922 C.ar        1 ROC      -0.0444
      9 C7         21.1138   27.9733   15.4991 C.ar        1 ROC      -0.0546
     10 C8         19.9191   27.7888   14.7768 C.ar        1 ROC      -0.0545
     11 C9R        19.0885   26.6896   15.0559 C.ar        1 ROC      -0.0370
     12 C10        19.4616   25.7656   16.0490 C.ar        1 ROC       0.0527
     13 N2         16.7521   22.9064   17.1226 N.am        1 ROC      -0.2600
     14 C11        15.6422   22.0672   17.4823 C.3         1 ROC       0.1473
     15 C12        14.7092   21.9621   16.3604 C.2         1 ROC       0.2045
     16 O2         15.0907   21.3068   15.3991 O.2         1 ROC      -0.3943
     17 C13        15.0628   22.5165   18.8626 C.3         1 ROC       0.0773
     18 C14        14.4509   23.8355   18.9346 C.2         1 ROC       0.1780
     19 O3         13.2725   23.9432   19.2362 O.2         1 ROC      -0.3970
     20 N3         15.1232   24.9521   18.7698 N.am        1 ROC      -0.3007
     21 C15        11.6226   21.0247   15.4072 C.3         1 ROC       0.1194
     22 O4         10.4287   21.0861   16.1878 O.3         1 ROC      -0.3840
     23 C16        12.3771   22.4105   15.4747 C.3         1 ROC       0.0823
     24 N4         13.4845   22.4857   16.3973 N.am        1 ROC      -0.2772
     25 C17        12.6128   23.1475   14.1144 C.3         1 ROC       0.0066
     26 C18        13.7428   22.6628   13.2828 C.ar        1 ROC      -0.0408
     27 C19        13.6099   21.5196   12.4587 C.ar        1 ROC      -0.0603
     28 C20        14.9934   23.3302   13.3197 C.ar        1 ROC      -0.0603
     29 C21        14.7024   21.0520   11.7122 C.ar        1 ROC      -0.0686
     30 C22        16.0871   22.8556   12.5789 C.ar        1 ROC      -0.0686
     31 C23        15.9424   21.7172   11.7690 C.ar        1 ROC      -0.0687
     32 N5         11.6837   18.4382   16.0056 N.4         1 ROC       0.2562
     33 C24        12.4111   19.7491   15.8453 C.3         1 ROC      -0.0008
     34 C25        10.9442   18.1993   17.3070 C.3         1 ROC       0.0688
     35 C26        11.7674   18.4063   18.5042 C.2         1 ROC       0.2251
     36 O5         11.3154   19.0575   19.4373 O.2         1 ROC      -0.3909
     37 C27        10.3916   16.7393   17.3742 C.3         1 ROC       0.0113
     38 C28         9.5533   16.3485   16.1221 C.3         1 ROC      -0.0261
     39 C29         9.0477   14.8719   16.1581 C.3         1 ROC      -0.0494
     40 C30        10.1610   13.8267   15.8757 C.3         1 ROC      -0.0528
     41 C31        10.9255   14.1414   14.5643 C.3         1 ROC      -0.0526
     42 C32        11.4650   15.5950   14.5337 C.3         1 ROC      -0.0451
     43 C33        10.3346   16.6369   14.8001 C.3         1 ROC       0.0024
     44 C34        10.8638   18.0966   14.7952 C.3         1 ROC      -0.0266
     45 N6         12.9719   17.8451   18.5665 N.am        1 ROC      -0.2771
     46 C35        13.9297   17.8106   19.6479 C.3         1 ROC       0.0448
     47 C36        13.3164   17.1904   20.9410 C.3         1 ROC      -0.0396
     48 C37        14.4926   19.2278   19.9597 C.3         1 ROC      -0.0396
     49 C38        15.1070   16.9140   19.1480 C.3         1 ROC      -0.0396
     50 H1         20.4121   23.2033   18.7069 H           1 ROC       0.0729
     51 H2         21.8717   25.0649   18.2884 H           1 ROC       0.0774
     52 H3         22.3646   27.2000   17.0074 H           1 ROC       0.0657
     53 H4         21.7091   28.7801   15.3001 H           1 ROC       0.0652
     54 H5         19.6509   28.4593   14.0531 H           1 ROC       0.0657
     55 H6         18.2167   26.5649   14.5341 H           1 ROC       0.0653
     56 H7         16.5290   23.7416   16.6820 H           1 ROC       0.1882
     57 H8         16.0106   21.0468   17.6460 H           1 ROC       0.0826
     58 H9         15.8617   22.4759   19.6092 H           1 ROC       0.0551
     59 H10        14.3159   21.7720   19.1531 H           1 ROC       0.0551
     60 H11        14.6687   25.8021   18.8776 H           1 ROC       0.1814
     61 H12        16.0709   24.9373   18.5700 H           1 ROC       0.1814
     62 H13        11.2760   20.8721   14.3829 H           1 ROC       0.0672
     63 H14        10.6831   21.5237   17.0269 H           1 ROC       0.2101
     64 H15        11.6554   23.0796   15.9584 H           1 ROC       0.0606
     65 H16        13.2845   22.9825   17.2011 H           1 ROC       0.1857
     66 H17        12.7689   24.2067   14.3476 H           1 ROC       0.0449
     67 H18        11.7017   23.1096   13.5115 H           1 ROC       0.0449
     68 H19        12.7216   21.0244   12.4023 H           1 ROC       0.0557
     69 H20        15.1231   24.1592   13.9113 H           1 ROC       0.0557
     70 H21        14.5920   20.2273   11.1225 H           1 ROC       0.0599
     71 H22        16.9899   23.3317   12.6377 H           1 ROC       0.0599
     72 H23        16.7356   21.3735   11.2284 H           1 ROC       0.0559
     73 H24        12.4356   17.7474   16.0151 H           1 ROC       0.2057
     74 H25        12.9229   19.9717   16.7784 H           1 ROC       0.0841
     75 H26        13.1903   19.5823   15.0984 H           1 ROC       0.0841
     76 H27        10.0799   18.8713   17.3484 H           1 ROC       0.1100
     77 H28         9.7615   16.6300   18.2636 H           1 ROC       0.0348
     78 H29        11.2229   16.0376   17.4741 H           1 ROC       0.0348
     79 H30         8.6621   16.9853   16.1270 H           1 ROC       0.0309
     80 H31         8.2669   14.7523   15.4008 H           1 ROC       0.0268
     81 H32         8.5921   14.6569   17.1274 H           1 ROC       0.0268
     82 H33         9.7099   12.8343   15.7947 H           1 ROC       0.0265
     83 H34        10.8664   13.7987   16.7087 H           1 ROC       0.0265
     84 H35        10.2558   13.9891   13.7121 H           1 ROC       0.0265
     85 H36        11.7625   13.4453   14.4589 H           1 ROC       0.0265
     86 H37        11.9084   15.7795   13.5508 H           1 ROC       0.0270
     87 H38        12.2601   15.6984   15.2757 H           1 ROC       0.0270
     88 H39         9.6242   16.5515   13.9682 H           1 ROC       0.0355
     89 H40        11.4605   18.2406   13.8882 H           1 ROC       0.0818
     90 H41        10.0028   18.7690   14.7277 H           1 ROC       0.0818
     91 H42        13.2501   17.3903   17.7562 H           1 ROC       0.1859
     92 H43        14.0819   17.0783   21.7131 H           1 ROC       0.0254
     93 H44        12.8881   16.2080   20.7341 H           1 ROC       0.0254
     94 H45        12.5290   17.8266   21.3481 H           1 ROC       0.0254
     95 H46        15.2612   19.1832   20.7374 H           1 ROC       0.0254
     96 H47        13.7060   19.8988   20.3050 H           1 ROC       0.0254
     97 H48        14.9334   19.6566   19.0599 H           1 ROC       0.0254
     98 H49        15.8777   16.8081   19.9163 H           1 ROC       0.0254
     99 H50        15.5736   17.3473   18.2589 H           1 ROC       0.0254
    100 H51        14.7480   15.9184   18.8803 H           1 ROC       0.0254
@<TRIPOS>BOND
     1     2     1   2
     2     2     4   1
     3    13     2  am
     4     4     3  ar
     5     3    12  ar
     6     4     5  ar
     7     5     6  ar
     8     6     7  ar
     9     7     8  ar
    10    12     7  ar
    11     8     9  ar
    12    10     9  ar
    13    11    10  ar
    14    12    11  ar
    15    14    13   1
    16    15    14   1
    17    14    17   1
    18    15    16   2
    19    24    15  am
    20    17    18   1
    21    18    19   2
    22    18    20  am
    23    21    22   1
    24    23    21   1
    25    21    33   1
    26    23    24   1
    27    23    25   1
    28    25    26   1
    29    26    27  ar
    30    26    28  ar
    31    27    29  ar
    32    28    30  ar
    33    29    31  ar
    34    30    31  ar
    35    33    32   1
    36    32    34   1
    37    32    44   1
    38    34    35   1
    39    34    37   1
    40    35    36   2
    41    35    45  am
    42    37    38   1
    43    38    39   1
    44    38    43   1
    45    39    40   1
    46    40    41   1
    47    41    42   1
    48    42    43   1
    49    43    44   1
    50    45    46   1
    51    46    47   1
    52    46    48   1
    53    46    49   1
    54     5    50   1
    55     6    51   1
    56     8    52   1
    57     9    53   1
    58    10    54   1
    59    11    55   1
    60    13    56   1
    61    14    57   1
    62    17    58   1
    63    17    59   1
    64    20    60   1
    65    20    61   1
    66    21    62   1
    67    22    63   1
    68    23    64   1
    69    24    65   1
    70    25    66   1
    71    25    67   1
    72    27    68   1
    73    28    69   1
    74    29    70   1
    75    30    71   1
    76    31    72   1
    77    32    73   1
    78    33    74   1
    79    33    75   1
    80    34    76   1
    81    37    77   1
    82    37    78   1
    83    38    79   1
    84    39    80   1
    85    39    81   1
    86    40    82   1
    87    40    83   1
    88    41    84   1
    89    41    85   1
    90    42    86   1
    91    42    87   1
    92    43    88   1
    93    44    89   1
    94    44    90   1
    95    45    91   1
    96    47    92   1
    97    47    93   1
    98    47    94   1
    99    48    95   1
   100    48    96   1
   101    48    97   1
   102    49    98   1
   103    49    99   1
   104    49   100   1
@<TRIPOS>SUBSTRUCTURE
     1  ROC      2

