@<TRIPOS>MOLECULE
3cyx_ligand_082
   100   104
SMALL
GAST_HUCK
****
This file was generated by PARSER (from files_GN.cpp)

@<TRIPOS>ATOM
      1 O1         10.5328   20.0978   15.8637 O.2         1 ROC      -0.3762
      2 C1         11.4068   19.3002   15.5457 C.2         1 ROC       0.2293
      3 N1         12.2985   17.7472   13.9784 N.ar        1 ROC      -0.2737
      4 C2         11.3616   18.6826   14.2986 C.ar        1 ROC       0.1219
      5 C3         10.3981   19.0079   13.3176 C.ar        1 ROC      -0.0136
      6 C4         10.4284   18.3783   12.0581 C.ar        1 ROC      -0.0314
      7 C5         11.4272   17.4293   11.7623 C.ar        1 ROC       0.0097
      8 C6         11.5039   16.7787   10.5151 C.ar        1 ROC      -0.0444
      9 C7         12.5261   15.8420   10.2676 C.ar        1 ROC      -0.0546
     10 C8         13.4725   15.5452   11.2670 C.ar        1 ROC      -0.0545
     11 C9R        13.3958   16.1829   12.5224 C.ar        1 ROC      -0.0370
     12 C10        12.3738   17.1148   12.7752 C.ar        1 ROC       0.0527
     13 N2         12.4071   19.0439   16.3883 N.am        1 ROC      -0.2600
     14 C11        12.6066   19.5820   17.7041 C.3         1 ROC       0.1473
     15 C12        13.7606   20.4882   17.7308 C.2         1 ROC       0.2045
     16 O2         14.8555   20.1204   17.3136 O.2         1 ROC      -0.3943
     17 C13        12.8035   18.4125   18.7189 C.3         1 ROC       0.0773
     18 C14        11.5785   17.8251   19.2246 C.2         1 ROC       0.1780
     19 O3         10.6474   18.5439   19.5566 O.2         1 ROC      -0.3970
     20 N3         11.5641   16.5689   19.6502 N.am        1 ROC      -0.3007
     21 C15        15.2109   23.4912   17.7510 C.3         1 ROC       0.1194
     22 O4         14.1347   23.8453   16.8858 O.3         1 ROC      -0.3840
     23 C16        14.6581   22.5352   18.8765 C.3         1 ROC       0.0823
     24 N4         13.6493   21.6139   18.4254 N.am        1 ROC      -0.2772
     25 C17        15.7242   21.9626   19.8705 C.3         1 ROC       0.0066
     26 C18        15.4400   20.6320   20.4786 C.ar        1 ROC      -0.0408
     27 C19        14.5899   20.5082   21.6076 C.ar        1 ROC      -0.0603
     28 C20        16.0082   19.4466   19.9322 C.ar        1 ROC      -0.0603
     29 C21        14.3076   19.2394   22.1624 C.ar        1 ROC      -0.0686
     30 C22        15.7256   18.1851   20.4855 C.ar        1 ROC      -0.0686
     31 C23        14.8708   18.0790   21.6013 C.ar        1 ROC      -0.0687
     32 N5         17.0738   23.9946   15.9282 N.4         1 ROC       0.2562
     33 C24        16.4158   23.0075   16.8759 C.3         1 ROC      -0.0008
     34 C25        16.2940   24.4219   14.7090 C.3         1 ROC       0.0688
     35 C26        15.8131   23.2764   13.9461 C.2         1 ROC       0.2251
     36 O5         16.6380   22.6202   13.3222 O.2         1 ROC      -0.3909
     37 C27        17.1508   25.3257   13.7542 C.3         1 ROC       0.0113
     38 C28        17.8673   26.4951   14.4944 C.3         1 ROC      -0.0261
     39 C29        18.8161   27.3183   13.5701 C.3         1 ROC      -0.0494
     40 C30        20.1421   26.5908   13.2253 C.3         1 ROC      -0.0528
     41 C31        20.8789   26.0948   14.4965 C.3         1 ROC      -0.0526
     42 C32        19.9540   25.2435   15.4071 C.3         1 ROC      -0.0451
     43 C33        18.6386   26.0022   15.7585 C.3         1 ROC       0.0024
     44 C34        17.6883   25.1596   16.6524 C.3         1 ROC      -0.0266
     45 N6         14.5404   22.9010   14.0073 N.am        1 ROC      -0.2771
     46 C35        13.9174   21.7614   13.3575 C.3         1 ROC       0.0448
     47 C36        12.3894   21.8953   13.6159 C.3         1 ROC      -0.0396
     48 C37        14.4270   20.4093   13.9454 C.3         1 ROC      -0.0396
     49 C38        14.1771   21.8033   11.8217 C.3         1 ROC      -0.0396
     50 H1          9.6627   19.6907   13.5161 H           1 ROC       0.0729
     51 H2          9.7326   18.6475   11.3614 H           1 ROC       0.0774
     52 H3         10.8322   16.9874    9.7733 H           1 ROC       0.0657
     53 H4         12.5898   15.3780    9.3591 H           1 ROC       0.0652
     54 H5         14.2248   14.8737   11.0809 H           1 ROC       0.0657
     55 H6         14.0886   15.9647   13.2395 H           1 ROC       0.0653
     56 H7         13.0583   18.3890   16.0971 H           1 ROC       0.1882
     57 H8         11.7155   20.1441   18.0245 H           1 ROC       0.0826
     58 H9         13.3304   18.7980   19.5949 H           1 ROC       0.0551
     59 H10        13.4372   17.6426   18.2543 H           1 ROC       0.0551
     60 H11        10.8091   16.2422   20.1573 H           1 ROC       0.1814
     61 H12        12.3357   15.9956   19.4989 H           1 ROC       0.1814
     62 H13        15.5264   24.4028   18.2729 H           1 ROC       0.0672
     63 H14        13.6647   24.5848   17.3381 H           1 ROC       0.2101
     64 H15        14.0521   23.2066   19.5062 H           1 ROC       0.0606
     65 H16        12.7560   21.8128   18.7632 H           1 ROC       0.1857
     66 H17        15.8672   22.6770   20.6891 H           1 ROC       0.0449
     67 H18        16.7012   21.9060   19.3790 H           1 ROC       0.0449
     68 H19        14.1636   21.3392   22.0148 H           1 ROC       0.0557
     69 H20        16.6179   19.5006   19.1151 H           1 ROC       0.0557
     70 H21        13.6704   19.1684   22.9509 H           1 ROC       0.0599
     71 H22        16.1339   17.3468   20.0771 H           1 ROC       0.0599
     72 H23        14.6472   17.1629   21.9872 H           1 ROC       0.0559
     73 H24        17.8776   23.4777   15.5501 H           1 ROC       0.2057
     74 H25        16.0991   22.1244   16.3248 H           1 ROC       0.0841
     75 H26        17.2228   22.6803   17.5258 H           1 ROC       0.0841
     76 H27        15.4477   25.0244   15.0448 H           1 ROC       0.1100
     77 H28        16.5024   25.7425   12.9809 H           1 ROC       0.0348
     78 H29        17.9115   24.7190   13.2569 H           1 ROC       0.0348
     79 H30        17.0744   27.1760   14.8233 H           1 ROC       0.0309
     80 H31        19.0641   28.2585   14.0809 H           1 ROC       0.0268
     81 H32        18.2881   27.5821   12.6498 H           1 ROC       0.0268
     82 H33        20.7986   27.2777   12.6837 H           1 ROC       0.0265
     83 H34        19.9427   25.7401   12.5667 H           1 ROC       0.0265
     84 H35        21.2428   26.9622   15.0610 H           1 ROC       0.0265
     85 H36        21.7492   25.4998   14.2003 H           1 ROC       0.0265
     86 H37        20.5002   25.0048   16.3231 H           1 ROC       0.0270
     87 H38        19.7339   24.2990   14.8979 H           1 ROC       0.0270
     88 H39        18.9236   26.8855   16.3440 H           1 ROC       0.0355
     89 H40        18.2565   24.8147   17.5227 H           1 ROC       0.0818
     90 H41        16.8973   25.8239   17.0181 H           1 ROC       0.0818
     91 H42        13.9606   23.4518   14.5596 H           1 ROC       0.1859
     92 H43        11.8469   21.0729   13.1471 H           1 ROC       0.0254
     93 H44        12.0073   22.8428   13.2205 H           1 ROC       0.0254
     94 H45        12.1778   21.8820   14.6859 H           1 ROC       0.0254
     95 H46        13.8991   19.5840   13.4695 H           1 ROC       0.0254
     96 H47        14.2510   20.3647   15.0217 H           1 ROC       0.0254
     97 H48        15.4924   20.2554   13.7687 H           1 ROC       0.0254
     98 H49        13.6377   20.9863   11.3313 H           1 ROC       0.0254
     99 H50        15.2413   21.6916   11.5905 H           1 ROC       0.0254
    100 H51        13.8346   22.7542   11.3998 H           1 ROC       0.0254
@<TRIPOS>BOND
     1     2     1   2
     2     2     4   1
     3    13     2  am
     4     4     3  ar
     5     3    12  ar
     6     4     5  ar
     7     5     6  ar
     8     6     7  ar
     9     7     8  ar
    10    12     7  ar
    11     8     9  ar
    12    10     9  ar
    13    11    10  ar
    14    12    11  ar
    15    14    13   1
    16    15    14   1
    17    14    17   1
    18    15    16   2
    19    24    15  am
    20    17    18   1
    21    18    19   2
    22    18    20  am
    23    21    22   1
    24    23    21   1
    25    21    33   1
    26    23    24   1
    27    23    25   1
    28    25    26   1
    29    26    27  ar
    30    26    28  ar
    31    27    29  ar
    32    28    30  ar
    33    29    31  ar
    34    30    31  ar
    35    33    32   1
    36    32    34   1
    37    32    44   1
    38    34    35   1
    39    34    37   1
    40    35    36   2
    41    35    45  am
    42    37    38   1
    43    38    39   1
    44    38    43   1
    45    39    40   1
    46    40    41   1
    47    41    42   1
    48    42    43   1
    49    43    44   1
    50    45    46   1
    51    46    47   1
    52    46    48   1
    53    46    49   1
    54     5    50   1
    55     6    51   1
    56     8    52   1
    57     9    53   1
    58    10    54   1
    59    11    55   1
    60    13    56   1
    61    14    57   1
    62    17    58   1
    63    17    59   1
    64    20    60   1
    65    20    61   1
    66    21    62   1
    67    22    63   1
    68    23    64   1
    69    24    65   1
    70    25    66   1
    71    25    67   1
    72    27    68   1
    73    28    69   1
    74    29    70   1
    75    30    71   1
    76    31    72   1
    77    32    73   1
    78    33    74   1
    79    33    75   1
    80    34    76   1
    81    37    77   1
    82    37    78   1
    83    38    79   1
    84    39    80   1
    85    39    81   1
    86    40    82   1
    87    40    83   1
    88    41    84   1
    89    41    85   1
    90    42    86   1
    91    42    87   1
    92    43    88   1
    93    44    89   1
    94    44    90   1
    95    45    91   1
    96    47    92   1
    97    47    93   1
    98    47    94   1
    99    48    95   1
   100    48    96   1
   101    48    97   1
   102    49    98   1
   103    49    99   1
   104    49   100   1
@<TRIPOS>SUBSTRUCTURE
     1  ROC      2

