@<TRIPOS>MOLECULE
3cyx_ligand_039
   100   104
SMALL
GAST_HUCK
****
This file was generated by PARSER (from files_GN.cpp)

@<TRIPOS>ATOM
      1 O1         20.1170   24.4203   13.3845 O.2         1 ROC      -0.3762
      2 C1         19.9064   25.1650   14.3509 C.2         1 ROC       0.2293
      3 N1         20.7197   26.0394   16.3800 N.ar        1 ROC      -0.2737
      4 C2         20.9341   25.6978   15.0793 C.ar        1 ROC       0.1219
      5 C3         22.2184   25.9255   14.5208 C.ar        1 ROC      -0.0136
      6 C4         23.2332   26.4869   15.3256 C.ar        1 ROC      -0.0314
      7 C5         22.9785   26.7928   16.6729 C.ar        1 ROC       0.0097
      8 C6         23.9801   27.2833   17.5308 C.ar        1 ROC      -0.0444
      9 C7         23.6906   27.5302   18.8850 C.ar        1 ROC      -0.0546
     10 C8         22.3925   27.3381   19.3805 C.ar        1 ROC      -0.0545
     11 C9R        21.3772   26.8685   18.5345 C.ar        1 ROC      -0.0370
     12 C10        21.6742   26.5668   17.1885 C.ar        1 ROC       0.0527
     13 N2         18.6602   25.5572   14.6354 N.am        1 ROC      -0.2600
     14 C11        17.4458   25.3474   13.9170 C.3         1 ROC       0.1473
     15 C12        16.6988   24.2504   14.5505 C.2         1 ROC       0.2045
     16 O2         17.2113   23.1436   14.6376 O.2         1 ROC      -0.3943
     17 C13        17.5877   25.1974   12.3609 C.3         1 ROC       0.0773
     18 C14        16.8064   26.1437   11.5947 C.2         1 ROC       0.1780
     19 O3         16.8961   27.3393   11.8348 O.2         1 ROC      -0.3970
     20 N3         16.0613   25.7668   10.5852 N.am        1 ROC      -0.3007
     21 C15        15.3238   22.9475   17.0517 C.3         1 ROC       0.1194
     22 O4         15.8917   21.6857   16.7006 O.3         1 ROC      -0.3840
     23 C16        14.6250   23.6453   15.8303 C.3         1 ROC       0.0823
     24 N4         15.5056   24.4942   15.0691 N.am        1 ROC      -0.2772
     25 C17        13.6548   22.7653   14.9707 C.3         1 ROC       0.0066
     26 C18        14.2584   21.7294   14.0907 C.ar        1 ROC      -0.0408
     27 C19        14.0477   20.3505   14.3371 C.ar        1 ROC      -0.0603
     28 C20        15.0592   22.1026   12.9861 C.ar        1 ROC      -0.0603
     29 C21        14.6566   19.3739   13.5344 C.ar        1 ROC      -0.0686
     30 C22        15.6769   21.1270   12.1889 C.ar        1 ROC      -0.0686
     31 C23        15.4978   19.7625   12.4789 C.ar        1 ROC      -0.0687
     32 N5         14.3473   21.4756   18.9683 N.4         1 ROC       0.2562
     33 C24        14.4392   22.8585   18.3465 C.3         1 ROC      -0.0008
     34 C25        14.8781   21.3891   20.3833 C.3         1 ROC       0.0688
     35 C26        16.3093   21.7194   20.4122 C.2         1 ROC       0.2251
     36 O5         17.1159   20.8654   20.0520 O.2         1 ROC      -0.3909
     37 C27        14.6727   19.9898   21.0478 C.3         1 ROC       0.0113
     38 C28        13.2071   19.4851   20.8989 C.3         1 ROC      -0.0261
     39 C29        12.9511   18.0902   21.5374 C.3         1 ROC      -0.0494
     40 C30        13.5587   16.9258   20.7167 C.3         1 ROC      -0.0528
     41 C31        13.1679   16.9734   19.2173 C.3         1 ROC      -0.0526
     42 C32        13.4454   18.3566   18.5761 C.3         1 ROC      -0.0451
     43 C33        12.7662   19.4903   19.4020 C.3         1 ROC       0.0024
     44 C34        12.9742   20.8997   18.7932 C.3         1 ROC      -0.0266
     45 N6         16.7123   22.9631   20.6880 N.am        1 ROC      -0.2771
     46 C35        18.0229   23.5630   20.5096 C.3         1 ROC       0.0448
     47 C36        19.2192   22.5495   20.5538 C.3         1 ROC      -0.0396
     48 C37        18.1990   24.5964   21.6754 C.3         1 ROC      -0.0396
     49 C38        18.0411   24.3291   19.1502 C.3         1 ROC      -0.0396
     50 H1         22.4199   25.7126   13.5409 H           1 ROC       0.0729
     51 H2         24.1522   26.6574   14.9171 H           1 ROC       0.0774
     52 H3         24.9307   27.4427   17.1842 H           1 ROC       0.0657
     53 H4         24.4314   27.8598   19.5089 H           1 ROC       0.0652
     54 H5         22.1857   27.5271   20.3665 H           1 ROC       0.0657
     55 H6         20.4275   26.7335   18.8940 H           1 ROC       0.0653
     56 H7         18.5976   26.1877   15.3786 H           1 ROC       0.1882
     57 H8         16.8983   26.2742   14.1155 H           1 ROC       0.0826
     58 H9         17.3462   24.1614   12.0657 H           1 ROC       0.0551
     59 H10        18.6404   25.3483   12.0690 H           1 ROC       0.0551
     60 H11        15.6116   26.4486   10.0577 H           1 ROC       0.1814
     61 H12        16.0269   24.8363   10.3002 H           1 ROC       0.1814
     62 H13        16.1890   23.5535   17.3297 H           1 ROC       0.0672
     63 H14        15.1191   21.1231   16.4734 H           1 ROC       0.2101
     64 H15        13.9597   24.3955   16.2714 H           1 ROC       0.0606
     65 H16        15.2039   25.4154   15.0325 H           1 ROC       0.1857
     66 H17        13.0582   23.4314   14.3453 H           1 ROC       0.0449
     67 H18        12.9431   22.2990   15.6572 H           1 ROC       0.0449
     68 H19        13.4515   20.0466   15.1106 H           1 ROC       0.0557
     69 H20        15.1860   23.0898   12.7492 H           1 ROC       0.0557
     70 H21        14.5242   18.3807   13.7428 H           1 ROC       0.0599
     71 H22        16.2890   21.4105   11.4196 H           1 ROC       0.0599
     72 H23        15.9606   19.0521   11.9110 H           1 ROC       0.0559
     73 H24        14.9607   20.8584   18.4340 H           1 ROC       0.2057
     74 H25        13.4385   23.2411   18.1245 H           1 ROC       0.0841
     75 H26        14.8236   23.5880   19.0749 H           1 ROC       0.0841
     76 H27        14.3255   22.1092   21.0017 H           1 ROC       0.1100
     77 H28        14.9169   20.0555   22.1140 H           1 ROC       0.0348
     78 H29        15.3554   19.2609   20.6044 H           1 ROC       0.0348
     79 H30        12.5694   20.1910   21.4427 H           1 ROC       0.0309
     80 H31        11.8726   17.9342   21.6174 H           1 ROC       0.0268
     81 H32        13.3533   18.0668   22.5510 H           1 ROC       0.0268
     82 H33        13.2093   15.9826   21.1368 H           1 ROC       0.0265
     83 H34        14.6454   16.9496   20.8033 H           1 ROC       0.0265
     84 H35        12.1031   16.7467   19.1193 H           1 ROC       0.0265
     85 H36        13.7226   16.2083   18.6711 H           1 ROC       0.0265
     86 H37        13.0492   18.3602   17.5570 H           1 ROC       0.0270
     87 H38        14.5241   18.5232   18.5071 H           1 ROC       0.0270
     88 H39        11.6881   19.3025   19.3695 H           1 ROC       0.0355
     89 H40        12.7492   20.8562   17.7227 H           1 ROC       0.0818
     90 H41        12.2471   21.5779   19.2483 H           1 ROC       0.0818
     91 H42        16.0033   23.5931   20.9172 H           1 ROC       0.1859
     92 H43        20.1762   23.0841   20.5615 H           1 ROC       0.0254
     93 H44        19.2188   21.8966   19.6732 H           1 ROC       0.0254
     94 H45        19.1640   21.9195   21.4482 H           1 ROC       0.0254
     95 H46        19.1432   25.1473   21.5743 H           1 ROC       0.0254
     96 H47        18.1993   24.0818   22.6424 H           1 ROC       0.0254
     97 H48        17.3742   25.3257   21.6719 H           1 ROC       0.0254
     98 H49        18.9650   24.9053   19.0429 H           1 ROC       0.0254
     99 H50        17.1865   25.0191   19.0915 H           1 ROC       0.0254
    100 H51        17.9844   23.6226   18.3139 H           1 ROC       0.0254
@<TRIPOS>BOND
     1     2     1   2
     2     2     4   1
     3    13     2  am
     4     4     3  ar
     5     3    12  ar
     6     4     5  ar
     7     5     6  ar
     8     6     7  ar
     9     7     8  ar
    10    12     7  ar
    11     8     9  ar
    12    10     9  ar
    13    11    10  ar
    14    12    11  ar
    15    14    13   1
    16    15    14   1
    17    14    17   1
    18    15    16   2
    19    24    15  am
    20    17    18   1
    21    18    19   2
    22    18    20  am
    23    21    22   1
    24    23    21   1
    25    21    33   1
    26    23    24   1
    27    23    25   1
    28    25    26   1
    29    26    27  ar
    30    26    28  ar
    31    27    29  ar
    32    28    30  ar
    33    29    31  ar
    34    30    31  ar
    35    33    32   1
    36    32    34   1
    37    32    44   1
    38    34    35   1
    39    34    37   1
    40    35    36   2
    41    35    45  am
    42    37    38   1
    43    38    39   1
    44    38    43   1
    45    39    40   1
    46    40    41   1
    47    41    42   1
    48    42    43   1
    49    43    44   1
    50    45    46   1
    51    46    47   1
    52    46    48   1
    53    46    49   1
    54     5    50   1
    55     6    51   1
    56     8    52   1
    57     9    53   1
    58    10    54   1
    59    11    55   1
    60    13    56   1
    61    14    57   1
    62    17    58   1
    63    17    59   1
    64    20    60   1
    65    20    61   1
    66    21    62   1
    67    22    63   1
    68    23    64   1
    69    24    65   1
    70    25    66   1
    71    25    67   1
    72    27    68   1
    73    28    69   1
    74    29    70   1
    75    30    71   1
    76    31    72   1
    77    32    73   1
    78    33    74   1
    79    33    75   1
    80    34    76   1
    81    37    77   1
    82    37    78   1
    83    38    79   1
    84    39    80   1
    85    39    81   1
    86    40    82   1
    87    40    83   1
    88    41    84   1
    89    41    85   1
    90    42    86   1
    91    42    87   1
    92    43    88   1
    93    44    89   1
    94    44    90   1
    95    45    91   1
    96    47    92   1
    97    47    93   1
    98    47    94   1
    99    48    95   1
   100    48    96   1
   101    48    97   1
   102    49    98   1
   103    49    99   1
   104    49   100   1
@<TRIPOS>SUBSTRUCTURE
     1  ROC      2

