@<TRIPOS>MOLECULE
3cyx_ligand_074
   100   104
SMALL
GAST_HUCK
****
This file was generated by PARSER (from files_GN.cpp)

@<TRIPOS>ATOM
      1 O1         20.2513   27.3246   17.6113 O.2         1 ROC      -0.3762
      2 C1         20.7846   26.2226   17.5730 C.2         1 ROC       0.2293
      3 N1         22.6762   24.8729   18.0639 N.ar        1 ROC      -0.2737
      4 C2         22.1502   26.1072   17.8253 C.ar        1 ROC       0.1219
      5 C3         23.0258   27.2208   17.8970 C.ar        1 ROC      -0.0136
      6 C4         24.3868   27.0247   18.1921 C.ar        1 ROC      -0.0314
      7 C5         24.8880   25.7245   18.4181 C.ar        1 ROC       0.0097
      8 C6         26.2463   25.4740   18.7107 C.ar        1 ROC      -0.0444
      9 C7         26.6906   24.1559   18.9353 C.ar        1 ROC      -0.0546
     10 C8         25.7840   23.0826   18.8743 C.ar        1 ROC      -0.0545
     11 C9R        24.4278   23.3199   18.5811 C.ar        1 ROC      -0.0370
     12 C10        23.9808   24.6344   18.3497 C.ar        1 ROC       0.0527
     13 N2         20.0639   25.1276   17.3663 N.am        1 ROC      -0.2600
     14 C11        18.6257   25.0061   17.3700 C.3         1 ROC       0.1473
     15 C12        18.2086   23.6235   17.6557 C.2         1 ROC       0.2045
     16 O2         19.0438   22.7204   17.7192 O.2         1 ROC      -0.3943
     17 C13        17.9658   25.6389   16.0930 C.3         1 ROC       0.0773
     18 C14        17.4090   24.7327   15.1042 C.2         1 ROC       0.1780
     19 O3         18.1154   23.8828   14.5752 O.2         1 ROC      -0.3970
     20 N3         16.1401   24.7848   14.7609 N.am        1 ROC      -0.3007
     21 C15        15.1048   21.8196   17.3129 C.3         1 ROC       0.1194
     22 O4         13.9887   22.6161   17.7159 O.3         1 ROC      -0.3840
     23 C16        16.3450   22.0786   18.2335 C.3         1 ROC       0.0823
     24 N4         16.9259   23.3573   17.8806 N.am        1 ROC      -0.2772
     25 C17        16.0867   22.1189   19.7770 C.3         1 ROC       0.0066
     26 C18        15.6052   20.8848   20.4562 C.ar        1 ROC      -0.0408
     27 C19        14.6366   20.9562   21.4936 C.ar        1 ROC      -0.0603
     28 C20        16.2079   19.6280   20.2038 C.ar        1 ROC      -0.0603
     29 C21        14.2751   19.8195   22.2308 C.ar        1 ROC      -0.0686
     30 C22        15.8060   18.4746   20.9042 C.ar        1 ROC      -0.0686
     31 C23        14.8435   18.5650   21.9258 C.ar        1 ROC      -0.0687
     32 N5         13.6182   19.9059   16.1859 N.4         1 ROC       0.2562
     33 C24        14.6740   20.3217   17.1937 C.3         1 ROC      -0.0008
     34 C25        12.1760   20.0123   16.6197 C.3         1 ROC       0.0688
     35 C26        11.9042   19.3181   17.8804 C.2         1 ROC       0.2251
     36 O5         11.3558   19.9447   18.7814 O.2         1 ROC      -0.3909
     37 C27        11.1985   19.4278   15.5472 C.3         1 ROC       0.0113
     38 C28        11.4305   20.0219   14.1304 C.3         1 ROC      -0.0261
     39 C29        10.4880   19.3899   13.0581 C.3         1 ROC      -0.0494
     40 C30        10.9117   17.9638   12.6091 C.3         1 ROC      -0.0528
     41 C31        12.4003   17.9143   12.1816 C.3         1 ROC      -0.0526
     42 C32        13.3349   18.4696   13.2859 C.3         1 ROC      -0.0451
     43 C33        12.9315   19.9164   13.7080 C.3         1 ROC       0.0024
     44 C34        13.8452   20.4969   14.8246 C.3         1 ROC      -0.0266
     45 N6         12.2304   18.0367   18.0095 N.am        1 ROC      -0.2771
     46 C35        12.1469   17.1298   19.1324 C.3         1 ROC       0.0448
     47 C36        13.6173   16.6767   19.3819 C.3         1 ROC      -0.0396
     48 C37        11.2682   15.9261   18.6846 C.3         1 ROC      -0.0396
     49 C38        11.5627   17.6932   20.4665 C.3         1 ROC      -0.0396
     50 H1         22.6823   28.1709   17.7379 H           1 ROC       0.0729
     51 H2         25.0072   27.8375   18.2430 H           1 ROC       0.0774
     52 H3         26.9183   26.2433   18.7629 H           1 ROC       0.0657
     53 H4         27.6750   23.9782   19.1459 H           1 ROC       0.0652
     54 H5         26.1087   22.1275   19.0433 H           1 ROC       0.0657
     55 H6         23.7734   22.5352   18.5408 H           1 ROC       0.0653
     56 H7         20.5661   24.2984   17.3043 H           1 ROC       0.1882
     57 H8         18.2865   25.5843   18.2356 H           1 ROC       0.0826
     58 H9         18.6909   26.2709   15.5721 H           1 ROC       0.0551
     59 H10        17.1757   26.3173   16.4307 H           1 ROC       0.0551
     60 H11        15.7859   24.1664   14.1034 H           1 ROC       0.1814
     61 H12        15.5498   25.4473   15.1636 H           1 ROC       0.1814
     62 H13        15.3884   22.1425   16.3061 H           1 ROC       0.0672
     63 H14        14.2536   23.5464   17.5060 H           1 ROC       0.2101
     64 H15        17.0667   21.2850   18.0237 H           1 ROC       0.0606
     65 H16        16.3179   24.1131   17.8431 H           1 ROC       0.1857
     66 H17        15.4124   22.9487   19.9856 H           1 ROC       0.0449
     67 H18        17.0322   22.3607   20.2671 H           1 ROC       0.0449
     68 H19        14.2091   21.8550   21.7350 H           1 ROC       0.0557
     69 H20        16.9406   19.5422   19.4942 H           1 ROC       0.0557
     70 H21        13.5910   19.8908   22.9918 H           1 ROC       0.0599
     71 H22        16.2378   17.5715   20.6954 H           1 ROC       0.0599
     72 H23        14.5504   17.7334   22.4277 H           1 ROC       0.0559
     73 H24        13.7754   18.9025   16.0592 H           1 ROC       0.2057
     74 H25        14.3879   19.9833   18.1900 H           1 ROC       0.0841
     75 H26        15.5716   19.7441   16.9409 H           1 ROC       0.0841
     76 H27        11.9329   21.0724   16.7338 H           1 ROC       0.1100
     77 H28        10.1652   19.6349   15.8465 H           1 ROC       0.0348
     78 H29        11.3100   18.3408   15.4934 H           1 ROC       0.0348
     79 H30        11.1748   21.0868   14.1877 H           1 ROC       0.0309
     80 H31        10.4864   20.0346   12.1789 H           1 ROC       0.0268
     81 H32         9.4615   19.3597   13.4334 H           1 ROC       0.0268
     82 H33        10.2861   17.6564   11.7658 H           1 ROC       0.0265
     83 H34        10.7396   17.2502   13.4211 H           1 ROC       0.0265
     84 H35        12.5267   18.5010   11.2708 H           1 ROC       0.0265
     85 H36        12.6761   16.8814   11.9580 H           1 ROC       0.0265
     86 H37        14.3611   18.4721   12.9045 H           1 ROC       0.0270
     87 H38        13.3066   17.8004   14.1505 H           1 ROC       0.0270
     88 H39        13.0700   20.5501   12.8227 H           1 ROC       0.0355
     89 H40        14.8888   20.3466   14.5234 H           1 ROC       0.0818
     90 H41        13.6685   21.5788   14.8640 H           1 ROC       0.0818
     91 H42        12.6421   17.6425   17.2192 H           1 ROC       0.1859
     92 H43        13.6821   16.0442   20.2682 H           1 ROC       0.0254
     93 H44        14.2800   17.5477   19.5444 H           1 ROC       0.0254
     94 H45        14.0005   16.1061   18.5278 H           1 ROC       0.0254
     95 H46        11.2439   15.1495   19.4541 H           1 ROC       0.0254
     96 H47        11.6483   15.4762   17.7637 H           1 ROC       0.0254
     97 H48        10.2410   16.2529   18.4991 H           1 ROC       0.0254
     98 H49        11.5792   16.9316   21.2512 H           1 ROC       0.0254
     99 H50        10.5244   18.0134   20.3317 H           1 ROC       0.0254
    100 H51        12.1471   18.5471   20.8119 H           1 ROC       0.0254
@<TRIPOS>BOND
     1     2     1   2
     2     2     4   1
     3    13     2  am
     4     4     3  ar
     5     3    12  ar
     6     4     5  ar
     7     5     6  ar
     8     6     7  ar
     9     7     8  ar
    10    12     7  ar
    11     8     9  ar
    12    10     9  ar
    13    11    10  ar
    14    12    11  ar
    15    14    13   1
    16    15    14   1
    17    14    17   1
    18    15    16   2
    19    24    15  am
    20    17    18   1
    21    18    19   2
    22    18    20  am
    23    21    22   1
    24    23    21   1
    25    21    33   1
    26    23    24   1
    27    23    25   1
    28    25    26   1
    29    26    27  ar
    30    26    28  ar
    31    27    29  ar
    32    28    30  ar
    33    29    31  ar
    34    30    31  ar
    35    33    32   1
    36    32    34   1
    37    32    44   1
    38    34    35   1
    39    34    37   1
    40    35    36   2
    41    35    45  am
    42    37    38   1
    43    38    39   1
    44    38    43   1
    45    39    40   1
    46    40    41   1
    47    41    42   1
    48    42    43   1
    49    43    44   1
    50    45    46   1
    51    46    47   1
    52    46    48   1
    53    46    49   1
    54     5    50   1
    55     6    51   1
    56     8    52   1
    57     9    53   1
    58    10    54   1
    59    11    55   1
    60    13    56   1
    61    14    57   1
    62    17    58   1
    63    17    59   1
    64    20    60   1
    65    20    61   1
    66    21    62   1
    67    22    63   1
    68    23    64   1
    69    24    65   1
    70    25    66   1
    71    25    67   1
    72    27    68   1
    73    28    69   1
    74    29    70   1
    75    30    71   1
    76    31    72   1
    77    32    73   1
    78    33    74   1
    79    33    75   1
    80    34    76   1
    81    37    77   1
    82    37    78   1
    83    38    79   1
    84    39    80   1
    85    39    81   1
    86    40    82   1
    87    40    83   1
    88    41    84   1
    89    41    85   1
    90    42    86   1
    91    42    87   1
    92    43    88   1
    93    44    89   1
    94    44    90   1
    95    45    91   1
    96    47    92   1
    97    47    93   1
    98    47    94   1
    99    48    95   1
   100    48    96   1
   101    48    97   1
   102    49    98   1
   103    49    99   1
   104    49   100   1
@<TRIPOS>SUBSTRUCTURE
     1  ROC      2

