@<TRIPOS>MOLECULE
3cyx_ligand_057
   100   104
SMALL
GAST_HUCK
****
This file was generated by PARSER (from files_GN.cpp)

@<TRIPOS>ATOM
      1 O1         16.3856   24.4393   16.9334 O.2         1 ROC      -0.3762
      2 C1         17.2923   25.0627   16.3906 C.2         1 ROC       0.2293
      3 N1         19.3749   26.2203   16.5247 N.ar        1 ROC      -0.2737
      4 C2         18.3746   25.5247   17.1404 C.ar        1 ROC       0.1219
      5 C3         18.5310   25.2334   18.5179 C.ar        1 ROC      -0.0136
      6 C4         19.6862   25.6525   19.1991 C.ar        1 ROC      -0.0314
      7 C5         20.6933   26.3702   18.5227 C.ar        1 ROC       0.0097
      8 C6         21.8705   26.8134   19.1667 C.ar        1 ROC      -0.0444
      9 C7         22.8525   27.5173   18.4435 C.ar        1 ROC      -0.0546
     10 C8         22.6622   27.7870   17.0757 C.ar        1 ROC      -0.0545
     11 C9R        21.4905   27.3561   16.4248 C.ar        1 ROC      -0.0370
     12 C10        20.5060   26.6490   17.1425 C.ar        1 ROC       0.0527
     13 N2         17.2657   25.2643   15.0757 N.am        1 ROC      -0.2600
     14 C11        16.2900   24.8140   14.1173 C.3         1 ROC       0.1473
     15 C12        16.1517   23.3584   14.1230 C.2         1 ROC       0.2045
     16 O2         16.8195   22.6833   13.3470 O.2         1 ROC      -0.3943
     17 C13        16.6155   25.4252   12.7133 C.3         1 ROC       0.0773
     18 C14        17.9487   25.1946   12.1776 C.2         1 ROC       0.1780
     19 O3         18.9391   25.5964   12.7715 O.2         1 ROC      -0.3970
     20 N3         18.1373   24.6197   11.0113 N.am        1 ROC      -0.3007
     21 C15        14.0420   20.6632   14.7321 C.3         1 ROC       0.1194
     22 O4         13.5841   21.4170   13.5983 O.3         1 ROC      -0.3840
     23 C16        15.3235   21.3583   15.3236 C.3         1 ROC       0.0823
     24 N4         15.3628   22.7671   15.0180 N.am        1 ROC      -0.2772
     25 C17        15.5856   21.1716   16.8525 C.3         1 ROC       0.0066
     26 C18        16.9019   21.5996   17.4302 C.ar        1 ROC      -0.0408
     27 C19        17.9765   22.1325   16.6711 C.ar        1 ROC      -0.0603
     28 C20        17.0813   21.4856   18.8336 C.ar        1 ROC      -0.0603
     29 C21        19.1553   22.5810   17.2936 C.ar        1 ROC      -0.0686
     30 C22        18.2658   21.9229   19.4564 C.ar        1 ROC      -0.0686
     31 C23        19.2969   22.4901   18.6883 C.ar        1 ROC      -0.0687
     32 N5         12.1368   19.0506   15.3414 N.4         1 ROC       0.2562
     33 C24        12.8088   20.3741   15.6601 C.3         1 ROC      -0.0008
     34 C25        11.0551   18.6094   16.3043 C.3         1 ROC       0.0688
     35 C26        11.4525   18.5958   17.7149 C.2         1 ROC       0.2251
     36 O5         10.7128   19.1219   18.5368 O.2         1 ROC      -0.3909
     37 C27        10.5667   17.1687   15.9470 C.3         1 ROC       0.0113
     38 C28        10.0954   17.0424   14.4727 C.3         1 ROC      -0.0261
     39 C29         9.6613   15.5893   14.0972 C.3         1 ROC      -0.0494
     40 C30        10.8518   14.6127   13.8922 C.3         1 ROC      -0.0528
     41 C31        11.8851   15.1754   12.8845 C.3         1 ROC      -0.0526
     42 C32        12.3654   16.5939   13.2845 C.3         1 ROC      -0.0451
     43 C33        11.1733   17.5813   13.4795 C.3         1 ROC       0.0024
     44 C34        11.6519   18.9956   13.9156 C.3         1 ROC      -0.0266
     45 N6         12.5637   17.9653   18.0808 N.am        1 ROC      -0.2771
     46 C35        13.0576   17.6690   19.4048 C.3         1 ROC       0.0448
     47 C36        13.2772   18.9655   20.2421 C.3         1 ROC      -0.0396
     48 C37        14.4312   16.9507   19.2160 C.3         1 ROC      -0.0396
     49 C38        12.0812   16.6962   20.1382 C.3         1 ROC      -0.0396
     50 H1         17.8166   24.7154   19.0313 H           1 ROC       0.0729
     51 H2         19.7963   25.4175   20.1886 H           1 ROC       0.0774
     52 H3         22.0237   26.6249   20.1594 H           1 ROC       0.0657
     53 H4         23.7052   27.8283   18.9112 H           1 ROC       0.0652
     54 H5         23.3839   28.2892   16.5504 H           1 ROC       0.0657
     55 H6         21.3649   27.5541   15.4289 H           1 ROC       0.0653
     56 H7         17.9882   25.8067   14.7243 H           1 ROC       0.1882
     57 H8         15.3225   25.2388   14.4068 H           1 ROC       0.0826
     58 H9         16.4884   26.5083   12.7772 H           1 ROC       0.0551
     59 H10        15.8660   25.0607   12.0034 H           1 ROC       0.0551
     60 H11        19.0342   24.5249   10.6572 H           1 ROC       0.1814
     61 H12        17.3835   24.2869   10.5027 H           1 ROC       0.1814
     62 H13        14.3711   19.6944   14.3359 H           1 ROC       0.0672
     63 H14        14.2894   21.3394   12.9164 H           1 ROC       0.2101
     64 H15        16.1498   20.8471   14.8185 H           1 ROC       0.0606
     65 H16        14.8222   23.3437   15.5777 H           1 ROC       0.1857
     66 H17        15.4333   20.1161   17.0981 H           1 ROC       0.0449
     67 H18        14.8176   21.7417   17.3775 H           1 ROC       0.0449
     68 H19        17.9157   22.2134   15.6562 H           1 ROC       0.0557
     69 H20        16.3368   21.1006   19.4240 H           1 ROC       0.0557
     70 H21        19.9049   22.9773   16.7251 H           1 ROC       0.0599
     71 H22        18.3756   21.8334   20.4682 H           1 ROC       0.0599
     72 H23        20.1508   22.8270   19.1385 H           1 ROC       0.0559
     73 H24        12.8718   18.3424   15.4355 H           1 ROC       0.2057
     74 H25        12.0868   21.2006   15.5972 H           1 ROC       0.0841
     75 H26        13.1684   20.3616   16.6883 H           1 ROC       0.0841
     76 H27        10.2031   19.2897   16.1850 H           1 ROC       0.1100
     77 H28         9.7377   16.8930   16.6020 H           1 ROC       0.0348
     78 H29        11.3804   16.4594   16.1207 H           1 ROC       0.0348
     79 H30         9.2063   17.6707   14.3686 H           1 ROC       0.0309
     80 H31         9.0832   15.6235   13.1657 H           1 ROC       0.0268
     81 H32         8.9996   15.1871   14.8710 H           1 ROC       0.0268
     82 H33        10.4729   13.6557   13.5191 H           1 ROC       0.0265
     83 H34        11.3455   14.4203   14.8474 H           1 ROC       0.0265
     84 H35        11.4330   15.2123   11.8878 H           1 ROC       0.0265
     85 H36        12.7444   14.5006   12.8367 H           1 ROC       0.0265
     86 H37        13.0271   16.9673   12.4968 H           1 ROC       0.0270
     87 H38        12.9525   16.5214   14.2007 H           1 ROC       0.0270
     88 H39        10.6974   17.6989   12.5006 H           1 ROC       0.0355
     89 H40        12.4440   19.2977   13.2290 H           1 ROC       0.0818
     90 H41        10.8299   19.7075   13.7876 H           1 ROC       0.0818
     91 H42        13.0917   17.6088   17.3524 H           1 ROC       0.1859
     92 H43        13.7363   18.7319   21.2056 H           1 ROC       0.0254
     93 H44        12.3352   19.4801   20.4376 H           1 ROC       0.0254
     94 H45        13.9330   19.6494   19.7047 H           1 ROC       0.0254
     95 H46        14.8766   16.6978   20.1808 H           1 ROC       0.0254
     96 H47        15.1319   17.5920   18.6759 H           1 ROC       0.0254
     97 H48        14.3118   16.0263   18.6450 H           1 ROC       0.0254
     98 H49        12.4976   16.3767   21.0965 H           1 ROC       0.0254
     99 H50        11.8983   15.8059   19.5306 H           1 ROC       0.0254
    100 H51        11.1195   17.1751   20.3332 H           1 ROC       0.0254
@<TRIPOS>BOND
     1     2     1   2
     2     2     4   1
     3    13     2  am
     4     4     3  ar
     5     3    12  ar
     6     4     5  ar
     7     5     6  ar
     8     6     7  ar
     9     7     8  ar
    10    12     7  ar
    11     8     9  ar
    12    10     9  ar
    13    11    10  ar
    14    12    11  ar
    15    14    13   1
    16    15    14   1
    17    14    17   1
    18    15    16   2
    19    24    15  am
    20    17    18   1
    21    18    19   2
    22    18    20  am
    23    21    22   1
    24    23    21   1
    25    21    33   1
    26    23    24   1
    27    23    25   1
    28    25    26   1
    29    26    27  ar
    30    26    28  ar
    31    27    29  ar
    32    28    30  ar
    33    29    31  ar
    34    30    31  ar
    35    33    32   1
    36    32    34   1
    37    32    44   1
    38    34    35   1
    39    34    37   1
    40    35    36   2
    41    35    45  am
    42    37    38   1
    43    38    39   1
    44    38    43   1
    45    39    40   1
    46    40    41   1
    47    41    42   1
    48    42    43   1
    49    43    44   1
    50    45    46   1
    51    46    47   1
    52    46    48   1
    53    46    49   1
    54     5    50   1
    55     6    51   1
    56     8    52   1
    57     9    53   1
    58    10    54   1
    59    11    55   1
    60    13    56   1
    61    14    57   1
    62    17    58   1
    63    17    59   1
    64    20    60   1
    65    20    61   1
    66    21    62   1
    67    22    63   1
    68    23    64   1
    69    24    65   1
    70    25    66   1
    71    25    67   1
    72    27    68   1
    73    28    69   1
    74    29    70   1
    75    30    71   1
    76    31    72   1
    77    32    73   1
    78    33    74   1
    79    33    75   1
    80    34    76   1
    81    37    77   1
    82    37    78   1
    83    38    79   1
    84    39    80   1
    85    39    81   1
    86    40    82   1
    87    40    83   1
    88    41    84   1
    89    41    85   1
    90    42    86   1
    91    42    87   1
    92    43    88   1
    93    44    89   1
    94    44    90   1
    95    45    91   1
    96    47    92   1
    97    47    93   1
    98    47    94   1
    99    48    95   1
   100    48    96   1
   101    48    97   1
   102    49    98   1
   103    49    99   1
   104    49   100   1
@<TRIPOS>SUBSTRUCTURE
     1  ROC      2

