@<TRIPOS>MOLECULE
3cyx_ligand_018
   100   104
SMALL
GAST_HUCK
****
This file was generated by PARSER (from files_GN.cpp)

@<TRIPOS>ATOM
      1 O1         16.3697   25.6402   15.0786 O.2         1 ROC      -0.3762
      2 C1         16.1803   24.4808   15.4472 C.2         1 ROC       0.2293
      3 N1         15.4513   22.2616   14.9488 N.ar        1 ROC      -0.2737
      4 C2         15.7055   23.5356   14.5383 C.ar        1 ROC       0.1219
      5 C3         15.5034   23.8299   13.1655 C.ar        1 ROC      -0.0136
      6 C4         15.0410   22.8329   12.2861 C.ar        1 ROC      -0.0314
      7 C5         14.7920   21.5302   12.7601 C.ar        1 ROC       0.0097
      8 C6         14.3186   20.4996   11.9197 C.ar        1 ROC      -0.0444
      9 C7         14.0747   19.2173   12.4453 C.ar        1 ROC      -0.0546
     10 C8         14.2997   18.9582   13.8090 C.ar        1 ROC      -0.0545
     11 C9R        14.7706   19.9772   14.6563 C.ar        1 ROC      -0.0370
     12 C10        15.0149   21.2634   14.1365 C.ar        1 ROC       0.0527
     13 N2         16.4987   24.1144   16.6927 N.am        1 ROC      -0.2600
     14 C11        17.1559   24.9192   17.6953 C.3         1 ROC       0.1473
     15 C12        18.6116   24.8020   17.5583 C.2         1 ROC       0.2045
     16 O2         19.1019   23.7360   17.2002 O.2         1 ROC      -0.3943
     17 C13        16.6001   24.6049   19.1326 C.3         1 ROC       0.0773
     18 C14        17.5306   24.0122   20.0785 C.2         1 ROC       0.1780
     19 O3         17.8341   22.8308   19.9975 O.2         1 ROC      -0.3970
     20 N3         18.1689   24.7558   20.9592 N.am        1 ROC      -0.3007
     21 C15        21.4083   26.7103   18.9493 C.3         1 ROC       0.1194
     22 O4         20.7540   27.9767   19.0783 O.3         1 ROC      -0.3840
     23 C16        20.8265   25.9294   17.7237 C.3         1 ROC       0.0823
     24 N4         19.3928   25.8316   17.8779 N.am        1 ROC      -0.2772
     25 C17        21.2075   26.5748   16.3466 C.3         1 ROC       0.0066
     26 C18        20.2120   26.3839   15.2519 C.ar        1 ROC      -0.0408
     27 C19        20.1698   25.1869   14.4950 C.ar        1 ROC      -0.0603
     28 C20        19.2681   27.3980   14.9526 C.ar        1 ROC      -0.0603
     29 C21        19.2051   25.0077   13.4840 C.ar        1 ROC      -0.0686
     30 C22        18.3137   27.2234   13.9329 C.ar        1 ROC      -0.0686
     31 C23        18.2767   26.0252   13.2057 C.ar        1 ROC      -0.0687
     32 N5         23.8539   25.7866   18.7717 N.4         1 ROC       0.2562
     33 C24        22.9454   26.9879   18.9179 C.3         1 ROC      -0.0008
     34 C25        25.2662   26.1436   18.3500 C.3         1 ROC       0.0688
     35 C26        25.3216   26.8463   17.0608 C.2         1 ROC       0.2251
     36 O5         24.9532   26.2447   16.0622 O.2         1 ROC      -0.3909
     37 C27        26.1971   24.8930   18.2492 C.3         1 ROC       0.0113
     38 C28        26.1804   24.0195   19.5354 C.3         1 ROC      -0.0261
     39 C29        27.0586   22.7358   19.3967 C.3         1 ROC      -0.0494
     40 C30        26.4236   21.6479   18.4896 C.3         1 ROC      -0.0528
     41 C31        24.9777   21.3104   18.9293 C.3         1 ROC      -0.0526
     42 C32        24.0852   22.5735   19.0347 C.3         1 ROC      -0.0451
     43 C33        24.7181   23.6627   19.9521 C.3         1 ROC       0.0024
     44 C34        23.8457   24.9491   20.0243 C.3         1 ROC      -0.0266
     45 N6         25.7176   28.1128   17.0174 N.am        1 ROC      -0.2771
     46 C35        25.8354   29.0421   15.9126 C.3         1 ROC       0.0448
     47 C36        27.2692   29.6473   16.0056 C.3         1 ROC      -0.0396
     48 C37        24.7823   30.1596   16.1650 C.3         1 ROC      -0.0396
     49 C38        25.6413   28.4544   14.4766 C.3         1 ROC      -0.0396
     50 H1         15.7003   24.7604   12.7895 H           1 ROC       0.0729
     51 H2         14.8868   23.0692   11.3031 H           1 ROC       0.0774
     52 H3         14.1396   20.6736   10.9293 H           1 ROC       0.0657
     53 H4         13.7293   18.4693   11.8365 H           1 ROC       0.0652
     54 H5         14.1115   18.0277   14.1840 H           1 ROC       0.0657
     55 H6         14.9225   19.7844   15.6481 H           1 ROC       0.0653
     56 H7         16.3740   23.1752   16.9078 H           1 ROC       0.1882
     57 H8         16.8993   25.9668   17.4964 H           1 ROC       0.0826
     58 H9         15.7260   23.9513   19.0644 H           1 ROC       0.0551
     59 H10        16.2260   25.5364   19.5668 H           1 ROC       0.0551
     60 H11        18.8324   24.3590   21.5476 H           1 ROC       0.1814
     61 H12        18.0077   25.7137   20.9918 H           1 ROC       0.1814
     62 H13        21.1722   26.1548   19.8590 H           1 ROC       0.0672
     63 H14        19.9219   27.8040   19.5686 H           1 ROC       0.2101
     64 H15        21.2610   24.9254   17.7475 H           1 ROC       0.0606
     65 H16        18.9355   26.6127   18.2305 H           1 ROC       0.1857
     66 H17        22.1623   26.1612   16.0177 H           1 ROC       0.0449
     67 H18        21.3774   27.6428   16.4916 H           1 ROC       0.0449
     68 H19        20.8416   24.4386   14.6769 H           1 ROC       0.0557
     69 H20        19.2617   28.2689   15.4866 H           1 ROC       0.0557
     70 H21        19.1774   24.1343   12.9543 H           1 ROC       0.0599
     71 H22        17.6445   27.9697   13.7271 H           1 ROC       0.0599
     72 H23        17.6037   25.9109   12.4443 H           1 ROC       0.0559
     73 H24        23.4680   25.2097   18.0199 H           1 ROC       0.2057
     74 H25        23.2170   27.5371   19.8257 H           1 ROC       0.0841
     75 H26        23.1062   27.6906   18.0990 H           1 ROC       0.0841
     76 H27        25.6888   26.7885   19.1302 H           1 ROC       0.1100
     77 H28        27.2253   25.2224   18.0660 H           1 ROC       0.0348
     78 H29        25.8903   24.2819   17.3978 H           1 ROC       0.0348
     79 H30        26.6220   24.6205   20.3384 H           1 ROC       0.0309
     80 H31        27.2139   22.3078   20.3921 H           1 ROC       0.0268
     81 H32        28.0448   22.9990   19.0034 H           1 ROC       0.0268
     82 H33        27.0329   20.7417   18.5363 H           1 ROC       0.0265
     83 H34        26.4156   21.9835   17.4499 H           1 ROC       0.0265
     84 H35        25.0108   20.8135   19.9015 H           1 ROC       0.0265
     85 H36        24.5358   20.6155   18.2112 H           1 ROC       0.0265
     86 H37        23.1118   22.2777   19.4370 H           1 ROC       0.0270
     87 H38        23.9194   22.9800   18.0363 H           1 ROC       0.0270
     88 H39        24.7550   23.2432   20.9644 H           1 ROC       0.0355
     89 H40        22.8283   24.6351   20.2627 H           1 ROC       0.0818
     90 H41        24.1985   25.5501   20.8692 H           1 ROC       0.0818
     91 H42        25.9297   28.5008   17.8824 H           1 ROC       0.1859
     92 H43        27.4153   30.4257   15.2522 H           1 ROC       0.0254
     93 H44        28.0233   28.8720   15.8480 H           1 ROC       0.0254
     94 H45        27.4411   30.0925   16.9880 H           1 ROC       0.0254
     95 H46        24.8316   30.9270   15.3890 H           1 ROC       0.0254
     96 H47        24.9502   30.6420   17.1299 H           1 ROC       0.0254
     97 H48        23.7744   29.7369   16.1684 H           1 ROC       0.0254
     98 H49        25.8289   29.2220   13.7158 H           1 ROC       0.0254
     99 H50        24.6239   28.0931   14.3301 H           1 ROC       0.0254
    100 H51        26.3314   27.6296   14.2984 H           1 ROC       0.0254
@<TRIPOS>BOND
     1     2     1   2
     2     2     4   1
     3    13     2  am
     4     4     3  ar
     5     3    12  ar
     6     4     5  ar
     7     5     6  ar
     8     6     7  ar
     9     7     8  ar
    10    12     7  ar
    11     8     9  ar
    12    10     9  ar
    13    11    10  ar
    14    12    11  ar
    15    14    13   1
    16    15    14   1
    17    14    17   1
    18    15    16   2
    19    24    15  am
    20    17    18   1
    21    18    19   2
    22    18    20  am
    23    21    22   1
    24    23    21   1
    25    21    33   1
    26    23    24   1
    27    23    25   1
    28    25    26   1
    29    26    27  ar
    30    26    28  ar
    31    27    29  ar
    32    28    30  ar
    33    29    31  ar
    34    30    31  ar
    35    33    32   1
    36    32    34   1
    37    32    44   1
    38    34    35   1
    39    34    37   1
    40    35    36   2
    41    35    45  am
    42    37    38   1
    43    38    39   1
    44    38    43   1
    45    39    40   1
    46    40    41   1
    47    41    42   1
    48    42    43   1
    49    43    44   1
    50    45    46   1
    51    46    47   1
    52    46    48   1
    53    46    49   1
    54     5    50   1
    55     6    51   1
    56     8    52   1
    57     9    53   1
    58    10    54   1
    59    11    55   1
    60    13    56   1
    61    14    57   1
    62    17    58   1
    63    17    59   1
    64    20    60   1
    65    20    61   1
    66    21    62   1
    67    22    63   1
    68    23    64   1
    69    24    65   1
    70    25    66   1
    71    25    67   1
    72    27    68   1
    73    28    69   1
    74    29    70   1
    75    30    71   1
    76    31    72   1
    77    32    73   1
    78    33    74   1
    79    33    75   1
    80    34    76   1
    81    37    77   1
    82    37    78   1
    83    38    79   1
    84    39    80   1
    85    39    81   1
    86    40    82   1
    87    40    83   1
    88    41    84   1
    89    41    85   1
    90    42    86   1
    91    42    87   1
    92    43    88   1
    93    44    89   1
    94    44    90   1
    95    45    91   1
    96    47    92   1
    97    47    93   1
    98    47    94   1
    99    48    95   1
   100    48    96   1
   101    48    97   1
   102    49    98   1
   103    49    99   1
   104    49   100   1
@<TRIPOS>SUBSTRUCTURE
     1  ROC      2

