@<TRIPOS>MOLECULE
3cyx_ligand_051
   100   104
SMALL
GAST_HUCK
****
This file was generated by PARSER (from files_GN.cpp)

@<TRIPOS>ATOM
      1 O1         14.6860   20.9831   13.3743 O.2         1 ROC      -0.3762
      2 C1         13.7858   20.6325   14.1309 C.2         1 ROC       0.2293
      3 N1         12.2573   18.9548   14.8486 N.ar        1 ROC      -0.2737
      4 C2         13.3363   19.3176   14.0972 C.ar        1 ROC       0.1219
      5 C3         13.9739   18.3129   13.3286 C.ar        1 ROC      -0.0136
      6 C4         13.4944   16.9921   13.3606 C.ar        1 ROC      -0.0314
      7 C5         12.3717   16.6592   14.1492 C.ar        1 ROC       0.0097
      8 C6         11.8558   15.3479   14.2243 C.ar        1 ROC      -0.0444
      9 C7         10.7277   15.0746   15.0213 C.ar        1 ROC      -0.0546
     10 C8         10.1209   16.1069   15.7625 C.ar        1 ROC      -0.0545
     11 C9R        10.6347   17.4142   15.7072 C.ar        1 ROC      -0.0370
     12 C10        11.7590   17.6945   14.9056 C.ar        1 ROC       0.0527
     13 N2         13.3063   21.4977   15.0246 N.am        1 ROC      -0.2600
     14 C11        13.7970   22.8366   15.2533 C.3         1 ROC       0.1473
     15 C12        15.2270   22.8819   15.5686 C.2         1 ROC       0.2045
     16 O2         15.8780   21.8419   15.5657 O.2         1 ROC      -0.3943
     17 C13        12.9340   23.5778   16.3210 C.3         1 ROC       0.0773
     18 C14        13.3789   23.4322   17.6969 C.2         1 ROC       0.1780
     19 O3         13.3015   22.3505   18.2591 O.2         1 ROC      -0.3970
     20 N3         13.8984   24.4430   18.3636 N.am        1 ROC      -0.3007
     21 C15        17.5052   25.7831   16.2747 C.3         1 ROC       0.1194
     22 O4         16.9815   26.5304   15.1701 O.3         1 ROC      -0.3840
     23 C16        17.2382   24.2615   15.9955 C.3         1 ROC       0.0823
     24 N4         15.8196   24.0420   15.8385 N.am        1 ROC      -0.2772
     25 C17        18.0581   23.6454   14.8090 C.3         1 ROC       0.0066
     26 C18        17.8165   24.2036   13.4470 C.ar        1 ROC      -0.0408
     27 C19        18.9010   24.5384   12.6002 C.ar        1 ROC      -0.0603
     28 C20        16.5045   24.3192   12.9286 C.ar        1 ROC      -0.0603
     29 C21        18.6755   24.9263   11.2660 C.ar        1 ROC      -0.0686
     30 C22        16.2759   24.7658   11.6189 C.ar        1 ROC      -0.0686
     31 C23        17.3624   25.0491   10.7796 C.ar        1 ROC      -0.0687
     32 N5         19.6911   26.0428   17.8729 N.4         1 ROC       0.2562
     33 C24        18.9845   26.2360   16.5346 C.3         1 ROC      -0.0008
     34 C25        19.8509   24.6145   18.3708 C.3         1 ROC       0.0688
     35 C26        18.6029   23.9969   18.8199 C.2         1 ROC       0.2251
     36 O5         17.6370   24.6984   19.0860 O.2         1 ROC      -0.3909
     37 C27        20.8543   24.4406   19.5730 C.3         1 ROC       0.0113
     38 C28        22.1808   25.2369   19.4480 C.3         1 ROC      -0.0261
     39 C29        23.0647   25.1544   20.7343 C.3         1 ROC      -0.0494
     40 C30        22.4993   25.9715   21.9297 C.3         1 ROC      -0.0528
     41 C31        22.1516   27.4303   21.5337 C.3         1 ROC      -0.0526
     42 C32        21.2590   27.5124   20.2699 C.3         1 ROC      -0.0451
     43 C33        21.8846   26.7213   19.0803 C.3         1 ROC       0.0024
     44 C34        21.0194   26.7631   17.7965 C.3         1 ROC      -0.0266
     45 N6         18.6044   22.6995   19.1273 N.am        1 ROC      -0.2771
     46 C35        17.5669   21.8881   19.7170 C.3         1 ROC       0.0448
     47 C36        16.5827   22.7214   20.5966 C.3         1 ROC      -0.0396
     48 C37        18.2972   20.8391   20.6083 C.3         1 ROC      -0.0396
     49 C38        16.7883   21.1301   18.6113 C.3         1 ROC      -0.0396
     50 H1         14.7954   18.5249   12.7550 H           1 ROC       0.0729
     51 H2         13.9694   16.2720   12.8097 H           1 ROC       0.0774
     52 H3         12.2890   14.5883   13.6954 H           1 ROC       0.0657
     53 H4         10.3513   14.1284   15.0644 H           1 ROC       0.0652
     54 H5          9.3037   15.9047   16.3428 H           1 ROC       0.0657
     55 H6         10.1891   18.1576   16.2527 H           1 ROC       0.0653
     56 H7         12.5811   21.1891   15.5862 H           1 ROC       0.1882
     57 H8         13.6482   23.3790   14.3133 H           1 ROC       0.0826
     58 H9         11.9048   23.2278   16.2520 H           1 ROC       0.0551
     59 H10        12.9076   24.6367   16.0575 H           1 ROC       0.0551
     60 H11        14.1985   24.3204   19.2760 H           1 ROC       0.1814
     61 H12        13.9884   25.3157   17.9466 H           1 ROC       0.1814
     62 H13        16.9207   26.1011   17.1408 H           1 ROC       0.0672
     63 H14        16.0085   26.5306   15.2916 H           1 ROC       0.2101
     64 H15        17.5405   23.7121   16.8813 H           1 ROC       0.0606
     65 H16        15.2387   24.8181   15.9114 H           1 ROC       0.1857
     66 H17        17.8448   22.5778   14.7462 H           1 ROC       0.0449
     67 H18        19.1202   23.6898   15.0610 H           1 ROC       0.0449
     68 H19        19.8699   24.4420   12.9243 H           1 ROC       0.0557
     69 H20        15.7024   24.0410   13.4799 H           1 ROC       0.0557
     70 H21        19.4684   25.0997   10.6473 H           1 ROC       0.0599
     71 H22        15.3199   24.8471   11.2675 H           1 ROC       0.0599
     72 H23        17.1875   25.3200    9.8121 H           1 ROC       0.0559
     73 H24        19.1289   26.5401   18.5715 H           1 ROC       0.2057
     74 H25        18.9499   27.3222   16.3735 H           1 ROC       0.0841
     75 H26        19.6169   25.8449   15.7383 H           1 ROC       0.0841
     76 H27        20.2444   24.0266   17.5362 H           1 ROC       0.1100
     77 H28        21.1274   23.3824   19.6694 H           1 ROC       0.0348
     78 H29        20.3609   24.7324   20.5072 H           1 ROC       0.0348
     79 H30        22.7558   24.7875   18.6300 H           1 ROC       0.0309
     80 H31        24.0617   25.5356   20.4956 H           1 ROC       0.0268
     81 H32        23.1780   24.1090   21.0364 H           1 ROC       0.0268
     82 H33        23.2432   25.9883   22.7308 H           1 ROC       0.0265
     83 H34        21.6055   25.4840   22.3315 H           1 ROC       0.0265
     84 H35        23.0763   27.9748   21.3403 H           1 ROC       0.0265
     85 H36        21.6380   27.9181   22.3671 H           1 ROC       0.0265
     86 H37        21.1432   28.5593   19.9846 H           1 ROC       0.0270
     87 H38        20.2648   27.1270   20.5083 H           1 ROC       0.0270
     88 H39        22.8414   27.1994   18.8404 H           1 ROC       0.0355
     89 H40        20.8660   27.8174   17.5563 H           1 ROC       0.0818
     90 H41        21.6152   26.3358   16.9802 H           1 ROC       0.0818
     91 H42        19.4499   22.2423   18.9743 H           1 ROC       0.1859
     92 H43        15.9053   22.0694   21.1503 H           1 ROC       0.0254
     93 H44        15.9693   23.3801   19.9860 H           1 ROC       0.0254
     94 H45        17.1387   23.3386   21.3020 H           1 ROC       0.0254
     95 H46        17.5867   20.1633   21.0865 H           1 ROC       0.0254
     96 H47        18.8836   21.3293   21.3846 H           1 ROC       0.0254
     97 H48        18.9780   20.2430   20.0033 H           1 ROC       0.0254
     98 H49        16.0305   20.4732   19.0449 H           1 ROC       0.0254
     99 H50        17.4755   20.5224   18.0179 H           1 ROC       0.0254
    100 H51        16.2881   21.8387   17.9535 H           1 ROC       0.0254
@<TRIPOS>BOND
     1     2     1   2
     2     2     4   1
     3    13     2  am
     4     4     3  ar
     5     3    12  ar
     6     4     5  ar
     7     5     6  ar
     8     6     7  ar
     9     7     8  ar
    10    12     7  ar
    11     8     9  ar
    12    10     9  ar
    13    11    10  ar
    14    12    11  ar
    15    14    13   1
    16    15    14   1
    17    14    17   1
    18    15    16   2
    19    24    15  am
    20    17    18   1
    21    18    19   2
    22    18    20  am
    23    21    22   1
    24    23    21   1
    25    21    33   1
    26    23    24   1
    27    23    25   1
    28    25    26   1
    29    26    27  ar
    30    26    28  ar
    31    27    29  ar
    32    28    30  ar
    33    29    31  ar
    34    30    31  ar
    35    33    32   1
    36    32    34   1
    37    32    44   1
    38    34    35   1
    39    34    37   1
    40    35    36   2
    41    35    45  am
    42    37    38   1
    43    38    39   1
    44    38    43   1
    45    39    40   1
    46    40    41   1
    47    41    42   1
    48    42    43   1
    49    43    44   1
    50    45    46   1
    51    46    47   1
    52    46    48   1
    53    46    49   1
    54     5    50   1
    55     6    51   1
    56     8    52   1
    57     9    53   1
    58    10    54   1
    59    11    55   1
    60    13    56   1
    61    14    57   1
    62    17    58   1
    63    17    59   1
    64    20    60   1
    65    20    61   1
    66    21    62   1
    67    22    63   1
    68    23    64   1
    69    24    65   1
    70    25    66   1
    71    25    67   1
    72    27    68   1
    73    28    69   1
    74    29    70   1
    75    30    71   1
    76    31    72   1
    77    32    73   1
    78    33    74   1
    79    33    75   1
    80    34    76   1
    81    37    77   1
    82    37    78   1
    83    38    79   1
    84    39    80   1
    85    39    81   1
    86    40    82   1
    87    40    83   1
    88    41    84   1
    89    41    85   1
    90    42    86   1
    91    42    87   1
    92    43    88   1
    93    44    89   1
    94    44    90   1
    95    45    91   1
    96    47    92   1
    97    47    93   1
    98    47    94   1
    99    48    95   1
   100    48    96   1
   101    48    97   1
   102    49    98   1
   103    49    99   1
   104    49   100   1
@<TRIPOS>SUBSTRUCTURE
     1  ROC      2

