@<TRIPOS>MOLECULE
3cyx_ligand_080
   100   104
SMALL
GAST_HUCK
****
This file was generated by PARSER (from files_GN.cpp)

@<TRIPOS>ATOM
      1 O1         21.8764   28.0127   17.7940 O.2         1 ROC      -0.3762
      2 C1         22.6702   27.4584   17.0382 C.2         1 ROC       0.2293
      3 N1         24.8723   26.7341   16.5219 N.ar        1 ROC      -0.2737
      4 C2         23.9768   27.2053   17.4368 C.ar        1 ROC       0.1219
      5 C3         24.4247   27.3802   18.7672 C.ar        1 ROC      -0.0136
      6 C4         25.7546   27.0678   19.1079 C.ar        1 ROC      -0.0314
      7 C5         26.6481   26.5931   18.1239 C.ar        1 ROC       0.0097
      8 C6         27.9907   26.2715   18.4135 C.ar        1 ROC      -0.0444
      9 C7         28.8418   25.8052   17.3918 C.ar        1 ROC      -0.0546
     10 C8         28.3594   25.6607   16.0786 C.ar        1 ROC      -0.0545
     11 C9R        27.0221   25.9726   15.7800 C.ar        1 ROC      -0.0370
     12 C10        26.1659   26.4341   16.7980 C.ar        1 ROC       0.0527
     13 N2         22.2589   27.0210   15.8556 N.am        1 ROC      -0.2600
     14 C11        20.9316   27.0560   15.3087 C.3         1 ROC       0.1473
     15 C12        20.0036   26.3219   16.1603 C.2         1 ROC       0.2045
     16 O2         18.9278   26.8376   16.4374 O.2         1 ROC      -0.3943
     17 C13        20.9833   26.4995   13.8496 C.3         1 ROC       0.0773
     18 C14        19.6897   26.2308   13.2387 C.2         1 ROC       0.1780
     19 O3         18.7565   27.0034   13.4011 O.2         1 ROC      -0.3970
     20 N3         19.4894   25.1600   12.5037 N.am        1 ROC      -0.3007
     21 C15        18.0958   24.0386   16.7120 C.3         1 ROC       0.1194
     22 O4         17.0126   24.6367   17.4236 O.3         1 ROC      -0.3840
     23 C16        19.4968   24.2461   17.4174 C.3         1 ROC       0.0823
     24 N4         20.3250   25.1148   16.6208 N.am        1 ROC      -0.2772
     25 C17        19.5058   24.6937   18.9309 C.3         1 ROC       0.0066
     26 C18        20.2027   23.7992   19.8953 C.ar        1 ROC      -0.0408
     27 C19        21.4939   23.2866   19.6066 C.ar        1 ROC      -0.0603
     28 C20        19.6319   23.5086   21.1633 C.ar        1 ROC      -0.0603
     29 C21        22.1838   22.5039   20.5496 C.ar        1 ROC      -0.0686
     30 C22        20.3377   22.7506   22.1113 C.ar        1 ROC      -0.0686
     31 C23        21.6066   22.2243   21.8012 C.ar        1 ROC      -0.0687
     32 N5         16.4152   22.2191   15.7739 N.4         1 ROC       0.2562
     33 C24        17.7507   22.5424   16.4091 C.3         1 ROC      -0.0008
     34 C25        15.1870   22.4551   16.6203 C.3         1 ROC       0.0688
     35 C26        15.2717   21.8432   17.9428 C.2         1 ROC       0.2251
     36 O5         15.4210   22.5670   18.9225 O.2         1 ROC      -0.3909
     37 C27        13.8970   21.9348   15.9096 C.3         1 ROC       0.0113
     38 C28        13.7340   22.5446   14.4849 C.3         1 ROC      -0.0261
     39 C29        12.4781   22.0189   13.7309 C.3         1 ROC      -0.0494
     40 C30        12.6334   20.5646   13.2089 C.3         1 ROC      -0.0528
     41 C31        13.9182   20.3897   12.3558 C.3         1 ROC      -0.0526
     42 C32        15.1834   20.8759   13.1099 C.3         1 ROC      -0.0451
     43 C33        15.0241   22.3406   13.6259 C.3         1 ROC       0.0024
     44 C34        16.2719   22.8342   14.4105 C.3         1 ROC      -0.0266
     45 N6         15.2641   20.5213   18.0734 N.am        1 ROC      -0.2771
     46 C35        15.3146   19.7265   19.2794 C.3         1 ROC       0.0448
     47 C36        15.4754   18.2425   18.8199 C.3         1 ROC      -0.0396
     48 C37        13.9937   19.8499   20.1041 C.3         1 ROC      -0.0396
     49 C38        16.5510   20.1327   20.1451 C.3         1 ROC      -0.0396
     50 H1         23.7923   27.7098   19.4998 H           1 ROC       0.0729
     51 H2         26.0623   27.1886   20.0760 H           1 ROC       0.0774
     52 H3         28.3552   26.3722   19.3634 H           1 ROC       0.0657
     53 H4         29.8131   25.5764   17.6061 H           1 ROC       0.0652
     54 H5         28.9807   25.3229   15.3403 H           1 ROC       0.0657
     55 H6         26.6784   25.8672   14.8211 H           1 ROC       0.0653
     56 H7         22.9322   26.6044   15.2957 H           1 ROC       0.1882
     57 H8         20.6245   28.1080   15.2448 H           1 ROC       0.0826
     58 H9         21.5900   25.5862   13.8427 H           1 ROC       0.0551
     59 H10        21.5001   27.2296   13.2221 H           1 ROC       0.0551
     60 H11        18.6225   25.0033   12.0960 H           1 ROC       0.1814
     61 H12        20.2184   24.5371   12.3408 H           1 ROC       0.1814
     62 H13        18.1273   24.5375   15.7407 H           1 ROC       0.0672
     63 H14        17.2214   25.5971   17.4386 H           1 ROC       0.2101
     64 H15        20.0228   23.2868   17.3617 H           1 ROC       0.0606
     65 H16        21.1973   24.7736   16.3810 H           1 ROC       0.1857
     66 H17        18.4799   24.8646   19.2644 H           1 ROC       0.0449
     67 H18        20.0008   25.6636   19.0303 H           1 ROC       0.0449
     68 H19        21.9440   23.5049   18.7122 H           1 ROC       0.0557
     69 H20        18.7178   23.8887   21.4182 H           1 ROC       0.0557
     70 H21        23.1111   22.1320   20.3256 H           1 ROC       0.0599
     71 H22        19.9289   22.5702   23.0295 H           1 ROC       0.0599
     72 H23        22.1116   21.6710   22.4926 H           1 ROC       0.0559
     73 H24        16.4399   21.2082   15.6169 H           1 ROC       0.2057
     74 H25        17.8803   21.9647   17.3264 H           1 ROC       0.0841
     75 H26        18.5167   22.1606   15.7311 H           1 ROC       0.0841
     76 H27        15.0603   23.5413   16.7458 H           1 ROC       0.1100
     77 H28        13.0170   22.2030   16.5079 H           1 ROC       0.0348
     78 H29        13.9354   20.8446   15.8328 H           1 ROC       0.0348
     79 H30        13.5908   23.6240   14.6136 H           1 ROC       0.0309
     80 H31        12.2831   22.6734   12.8737 H           1 ROC       0.0268
     81 H32        11.6003   22.0755   14.3844 H           1 ROC       0.0268
     82 H33        11.7615   20.3037   12.6026 H           1 ROC       0.0265
     83 H34        12.6608   19.8679   14.0529 H           1 ROC       0.0265
     84 H35        13.8100   20.9566   11.4252 H           1 ROC       0.0265
     85 H36        14.0335   19.3343   12.0914 H           1 ROC       0.0265
     86 H37        16.0333   20.8186   12.4237 H           1 ROC       0.0270
     87 H38        15.3854   20.1968   13.9420 H           1 ROC       0.0270
     88 H39        14.9364   22.9770   12.7368 H           1 ROC       0.0355
     89 H40        17.1588   22.6275   13.8092 H           1 ROC       0.0818
     90 H41        16.1925   23.9235   14.4951 H           1 ROC       0.0818
     91 H42        15.1819   20.0213   17.2455 H           1 ROC       0.1859
     92 H43        15.5257   17.5682   19.6801 H           1 ROC       0.0254
     93 H44        16.3873   18.1149   18.2302 H           1 ROC       0.0254
     94 H45        14.6240   17.9431   18.1999 H           1 ROC       0.0254
     95 H46        13.9830   19.1322   20.9293 H           1 ROC       0.0254
     96 H47        13.1266   19.6573   19.4652 H           1 ROC       0.0254
     97 H48        13.8865   20.8499   20.5306 H           1 ROC       0.0254
     98 H49        16.6516   19.4671   21.0122 H           1 ROC       0.0254
     99 H50        16.4526   21.1570   20.5155 H           1 ROC       0.0254
    100 H51        17.4682   20.0714   19.5497 H           1 ROC       0.0254
@<TRIPOS>BOND
     1     2     1   2
     2     2     4   1
     3    13     2  am
     4     4     3  ar
     5     3    12  ar
     6     4     5  ar
     7     5     6  ar
     8     6     7  ar
     9     7     8  ar
    10    12     7  ar
    11     8     9  ar
    12    10     9  ar
    13    11    10  ar
    14    12    11  ar
    15    14    13   1
    16    15    14   1
    17    14    17   1
    18    15    16   2
    19    24    15  am
    20    17    18   1
    21    18    19   2
    22    18    20  am
    23    21    22   1
    24    23    21   1
    25    21    33   1
    26    23    24   1
    27    23    25   1
    28    25    26   1
    29    26    27  ar
    30    26    28  ar
    31    27    29  ar
    32    28    30  ar
    33    29    31  ar
    34    30    31  ar
    35    33    32   1
    36    32    34   1
    37    32    44   1
    38    34    35   1
    39    34    37   1
    40    35    36   2
    41    35    45  am
    42    37    38   1
    43    38    39   1
    44    38    43   1
    45    39    40   1
    46    40    41   1
    47    41    42   1
    48    42    43   1
    49    43    44   1
    50    45    46   1
    51    46    47   1
    52    46    48   1
    53    46    49   1
    54     5    50   1
    55     6    51   1
    56     8    52   1
    57     9    53   1
    58    10    54   1
    59    11    55   1
    60    13    56   1
    61    14    57   1
    62    17    58   1
    63    17    59   1
    64    20    60   1
    65    20    61   1
    66    21    62   1
    67    22    63   1
    68    23    64   1
    69    24    65   1
    70    25    66   1
    71    25    67   1
    72    27    68   1
    73    28    69   1
    74    29    70   1
    75    30    71   1
    76    31    72   1
    77    32    73   1
    78    33    74   1
    79    33    75   1
    80    34    76   1
    81    37    77   1
    82    37    78   1
    83    38    79   1
    84    39    80   1
    85    39    81   1
    86    40    82   1
    87    40    83   1
    88    41    84   1
    89    41    85   1
    90    42    86   1
    91    42    87   1
    92    43    88   1
    93    44    89   1
    94    44    90   1
    95    45    91   1
    96    47    92   1
    97    47    93   1
    98    47    94   1
    99    48    95   1
   100    48    96   1
   101    48    97   1
   102    49    98   1
   103    49    99   1
   104    49   100   1
@<TRIPOS>SUBSTRUCTURE
     1  ROC      2

