@<TRIPOS>MOLECULE
3cyx_ligand_086
   100   104
SMALL
GAST_HUCK
****
This file was generated by PARSER (from files_GN.cpp)

@<TRIPOS>ATOM
      1 O1         13.9138   23.9026   16.1703 O.2         1 ROC      -0.3762
      2 C1         14.7848   23.9815   15.3111 C.2         1 ROC       0.2293
      3 N1         16.6603   25.2399   14.5816 N.ar        1 ROC      -0.2737
      4 C2         15.9580   24.6658   15.5989 C.ar        1 ROC       0.1219
      5 C3         16.4343   24.8476   16.9182 C.ar        1 ROC      -0.0136
      6 C4         17.6079   25.5887   17.1466 C.ar        1 ROC      -0.0314
      7 C5         18.2918   26.1861   16.0671 C.ar        1 ROC       0.0097
      8 C6         19.4416   26.9826   16.2521 C.ar        1 ROC      -0.0444
      9 C7         20.0586   27.6001   15.1456 C.ar        1 ROC      -0.0546
     10 C8         19.5422   27.4052   13.8499 C.ar        1 ROC      -0.0545
     11 C9R        18.4129   26.5906   13.6522 C.ar        1 ROC      -0.0370
     12 C10        17.7808   25.9866   14.7571 C.ar        1 ROC       0.0527
     13 N2         14.6251   23.4168   14.1180 N.am        1 ROC      -0.2600
     14 C11        13.4661   22.7388   13.5859 C.3         1 ROC       0.1473
     15 C12        12.7676   21.8517   14.5230 C.2         1 ROC       0.2045
     16 O2         13.4287   21.1809   15.3059 O.2         1 ROC      -0.3943
     17 C13        13.8298   22.0309   12.2413 C.3         1 ROC       0.0773
     18 C14        14.9886   21.1505   12.3026 C.2         1 ROC       0.1780
     19 O3         14.9549   20.1184   12.9560 O.2         1 ROC      -0.3970
     20 N3         16.0972   21.4345   11.6568 N.am        1 ROC      -0.3007
     21 C15        10.8631   20.2903   16.5696 C.3         1 ROC       0.1194
     22 O4         11.7459   20.7856   17.5844 O.3         1 ROC      -0.3840
     23 C16        10.5136   21.4851   15.6032 C.3         1 ROC       0.0823
     24 N4         11.4423   21.9306   14.5953 N.am        1 ROC      -0.2772
     25 C17         9.0778   21.3772   14.9908 C.3         1 ROC       0.0066
     26 C18         8.7707   20.1790   14.1599 C.ar        1 ROC      -0.0408
     27 C19         7.6490   19.3629   14.4496 C.ar        1 ROC      -0.0603
     28 C20         9.5334   19.8852   13.0049 C.ar        1 ROC      -0.0603
     29 C21         7.3225   18.2671   13.6291 C.ar        1 ROC      -0.0686
     30 C22         9.1855   18.8122   12.1642 C.ar        1 ROC      -0.0686
     31 C23         8.0937   17.9880   12.4880 C.ar        1 ROC      -0.0687
     32 N5         11.1155   17.6548   16.5201 N.4         1 ROC       0.2562
     33 C24        11.5122   19.0025   15.9611 C.3         1 ROC      -0.0008
     34 C25        10.8852   17.5311   18.0116 C.3         1 ROC       0.0688
     35 C26        11.8907   18.1485   18.8779 C.2         1 ROC       0.2251
     36 O5         11.5040   18.7283   19.8872 O.2         1 ROC      -0.3909
     37 C27        10.7266   16.0242   18.3961 C.3         1 ROC       0.0113
     38 C28         9.5332   15.3686   17.6315 C.3         1 ROC      -0.0261
     39 C29         9.2968   13.8684   17.9831 C.3         1 ROC      -0.0494
     40 C30        10.3489   12.9134   17.3612 C.3         1 ROC      -0.0528
     41 C31        10.4729   13.1207   15.8301 C.3         1 ROC      -0.0526
     42 C32        10.7259   14.6045   15.4560 C.3         1 ROC      -0.0451
     43 C33         9.6728   15.5671   16.0884 C.3         1 ROC       0.0024
     44 C34         9.9647   17.0609   15.7576 C.3         1 ROC      -0.0266
     45 N6         13.1835   18.0635   18.5834 N.am        1 ROC      -0.2771
     46 C35        14.3169   18.5828   19.3155 C.3         1 ROC       0.0448
     47 C36        15.5729   18.2259   18.4639 C.3         1 ROC      -0.0396
     48 C37        14.4278   17.8802   20.7037 C.3         1 ROC      -0.0396
     49 C38        14.2642   20.1350   19.4829 C.3         1 ROC      -0.0396
     50 H1         15.9413   24.4405   17.7170 H           1 ROC       0.0729
     51 H2         17.9490   25.7036   18.1046 H           1 ROC       0.0774
     52 H3         19.8259   27.1352   17.1885 H           1 ROC       0.0657
     53 H4         20.8765   28.1966   15.2855 H           1 ROC       0.0652
     54 H5         19.9894   27.8620   13.0532 H           1 ROC       0.0657
     55 H6         18.0455   26.4525   12.7077 H           1 ROC       0.0653
     56 H7         15.3870   23.4774   13.5212 H           1 ROC       0.1882
     57 H8         12.7717   23.5415   13.3272 H           1 ROC       0.0826
     58 H9         14.0133   22.8071   11.4938 H           1 ROC       0.0551
     59 H10        12.9775   21.4495   11.8815 H           1 ROC       0.0551
     60 H11        16.8488   20.8275   11.7003 H           1 ROC       0.1814
     61 H12        16.1647   22.2356   11.1142 H           1 ROC       0.1814
     62 H13         9.9427   20.0003   17.0868 H           1 ROC       0.0672
     63 H14        11.2473   21.4991   18.0440 H           1 ROC       0.2101
     64 H15        10.4330   22.3697   16.2447 H           1 ROC       0.0606
     65 H16        11.0458   22.5276   13.9374 H           1 ROC       0.1857
     66 H17         8.8897   22.2584   14.3715 H           1 ROC       0.0449
     67 H18         8.3666   21.4425   15.8199 H           1 ROC       0.0449
     68 H19         7.0629   19.5565   15.2644 H           1 ROC       0.0557
     69 H20        10.3196   20.4812   12.7426 H           1 ROC       0.0557
     70 H21         6.5142   17.6821   13.8567 H           1 ROC       0.0599
     71 H22         9.7279   18.6278   11.3199 H           1 ROC       0.0599
     72 H23         7.8554   17.1930   11.8935 H           1 ROC       0.0559
     73 H24        11.9299   17.0605   16.3209 H           1 ROC       0.2057
     74 H25        12.5952   19.0606   16.1031 H           1 ROC       0.0841
     75 H26        11.3707   19.0231   14.8752 H           1 ROC       0.0841
     76 H27         9.9256   18.0142   18.2392 H           1 ROC       0.1100
     77 H28        10.5459   15.9299   19.4710 H           1 ROC       0.0348
     78 H29        11.6563   15.4972   18.1677 H           1 ROC       0.0348
     79 H30         8.6261   15.8980   17.9514 H           1 ROC       0.0309
     80 H31         8.3127   13.5726   17.6068 H           1 ROC       0.0268
     81 H32         9.2823   13.7350   19.0672 H           1 ROC       0.0268
     82 H33        10.0545   11.8789   17.5565 H           1 ROC       0.0265
     83 H34        11.3203   13.0770   17.8326 H           1 ROC       0.0265
     84 H35         9.5528   12.7777   15.3452 H           1 ROC       0.0265
     85 H36        11.2975   12.5111   15.4487 H           1 ROC       0.0265
     86 H37        10.6944   14.6978   14.3669 H           1 ROC       0.0270
     87 H38        11.7273   14.8897   15.7809 H           1 ROC       0.0270
     88 H39         8.7038   15.3236   15.6317 H           1 ROC       0.0355
     89 H40        10.1365   17.1271   14.6791 H           1 ROC       0.0818
     90 H41         9.0645   17.6403   15.9806 H           1 ROC       0.0818
     91 H42        13.3954   17.6001   17.7564 H           1 ROC       0.1859
     92 H43        16.4854   18.5793   18.9470 H           1 ROC       0.0254
     93 H44        15.5066   18.6931   17.4786 H           1 ROC       0.0254
     94 H45        15.6568   17.1458   18.3203 H           1 ROC       0.0254
     95 H46        15.3488   18.1671   21.2137 H           1 ROC       0.0254
     96 H47        14.4262   16.7958   20.5815 H           1 ROC       0.0254
     97 H48        13.5910   18.1490   21.3487 H           1 ROC       0.0254
     98 H49        15.1494   20.4953   20.0123 H           1 ROC       0.0254
     99 H50        13.3877   20.4459   20.0527 H           1 ROC       0.0254
    100 H51        14.2296   20.6256   18.5079 H           1 ROC       0.0254
@<TRIPOS>BOND
     1     2     1   2
     2     2     4   1
     3    13     2  am
     4     4     3  ar
     5     3    12  ar
     6     4     5  ar
     7     5     6  ar
     8     6     7  ar
     9     7     8  ar
    10    12     7  ar
    11     8     9  ar
    12    10     9  ar
    13    11    10  ar
    14    12    11  ar
    15    14    13   1
    16    15    14   1
    17    14    17   1
    18    15    16   2
    19    24    15  am
    20    17    18   1
    21    18    19   2
    22    18    20  am
    23    21    22   1
    24    23    21   1
    25    21    33   1
    26    23    24   1
    27    23    25   1
    28    25    26   1
    29    26    27  ar
    30    26    28  ar
    31    27    29  ar
    32    28    30  ar
    33    29    31  ar
    34    30    31  ar
    35    33    32   1
    36    32    34   1
    37    32    44   1
    38    34    35   1
    39    34    37   1
    40    35    36   2
    41    35    45  am
    42    37    38   1
    43    38    39   1
    44    38    43   1
    45    39    40   1
    46    40    41   1
    47    41    42   1
    48    42    43   1
    49    43    44   1
    50    45    46   1
    51    46    47   1
    52    46    48   1
    53    46    49   1
    54     5    50   1
    55     6    51   1
    56     8    52   1
    57     9    53   1
    58    10    54   1
    59    11    55   1
    60    13    56   1
    61    14    57   1
    62    17    58   1
    63    17    59   1
    64    20    60   1
    65    20    61   1
    66    21    62   1
    67    22    63   1
    68    23    64   1
    69    24    65   1
    70    25    66   1
    71    25    67   1
    72    27    68   1
    73    28    69   1
    74    29    70   1
    75    30    71   1
    76    31    72   1
    77    32    73   1
    78    33    74   1
    79    33    75   1
    80    34    76   1
    81    37    77   1
    82    37    78   1
    83    38    79   1
    84    39    80   1
    85    39    81   1
    86    40    82   1
    87    40    83   1
    88    41    84   1
    89    41    85   1
    90    42    86   1
    91    42    87   1
    92    43    88   1
    93    44    89   1
    94    44    90   1
    95    45    91   1
    96    47    92   1
    97    47    93   1
    98    47    94   1
    99    48    95   1
   100    48    96   1
   101    48    97   1
   102    49    98   1
   103    49    99   1
   104    49   100   1
@<TRIPOS>SUBSTRUCTURE
     1  ROC      2

