@<TRIPOS>MOLECULE
3cyx_ligand_036
   100   104
SMALL
GAST_HUCK
****
This file was generated by PARSER (from files_GN.cpp)

@<TRIPOS>ATOM
      1 O1         13.0772   22.0064   18.4285 O.2         1 ROC      -0.3762
      2 C1         13.1517   20.8590   18.8553 C.2         1 ROC       0.2293
      3 N1         12.2434   18.6566   18.9374 N.ar        1 ROC      -0.2737
      4 C2         12.2447   19.9105   18.3975 C.ar        1 ROC       0.1219
      5 C3         11.3215   20.1772   17.3442 C.ar        1 ROC      -0.0136
      6 C4         10.4548   19.1631   16.9062 C.ar        1 ROC      -0.0314
      7 C5         10.4916   17.8848   17.4948 C.ar        1 ROC       0.0097
      8 C6          9.6517   16.8394   17.0706 C.ar        1 ROC      -0.0444
      9 C7          9.7200   15.5776   17.6865 C.ar        1 ROC      -0.0546
     10 C8         10.6374   15.3580   18.7354 C.ar        1 ROC      -0.0545
     11 C9R        11.4868   16.3872   19.1622 C.ar        1 ROC      -0.0370
     12 C10        11.4236   17.6539   18.5453 C.ar        1 ROC       0.0527
     13 N2         14.0635   20.5260   19.7668 N.am        1 ROC      -0.2600
     14 C11        15.2731   21.1229   20.3001 C.3         1 ROC       0.1473
     15 C12        15.6669   22.4980   19.9481 C.2         1 ROC       0.2045
     16 O2         14.8195   23.2305   19.4381 O.2         1 ROC      -0.3943
     17 C13        16.4125   20.0745   20.0052 C.3         1 ROC       0.0773
     18 C14        16.0964   18.7062   20.3642 C.2         1 ROC       0.1780
     19 O3         15.9167   18.3971   21.5427 O.2         1 ROC      -0.3970
     20 N3         15.9583   17.7617   19.4576 N.am        1 ROC      -0.3007
     21 C15        17.6496   24.4591   18.4717 C.3         1 ROC       0.1194
     22 O4         18.7820   25.2792   18.1829 O.3         1 ROC      -0.3840
     23 C16        17.4265   24.2977   20.0272 C.3         1 ROC       0.0823
     24 N4         16.8404   23.0160   20.3387 N.am        1 ROC      -0.2772
     25 C17        18.7089   24.5025   20.9122 C.3         1 ROC       0.0066
     26 C18        19.9650   23.7979   20.5049 C.ar        1 ROC      -0.0408
     27 C19        20.1281   22.4087   20.7208 C.ar        1 ROC      -0.0603
     28 C20        21.0569   24.5158   19.9511 C.ar        1 ROC      -0.0603
     29 C21        21.3185   21.7513   20.3565 C.ar        1 ROC      -0.0686
     30 C22        22.2491   23.8626   19.5870 C.ar        1 ROC      -0.0686
     31 C23        22.3787   22.4762   19.7846 C.ar        1 ROC      -0.0687
     32 N5         16.0630   24.3774   16.3628 N.4         1 ROC       0.2562
     33 C24        16.4399   25.0507   17.6632 C.3         1 ROC      -0.0008
     34 C25        17.1685   24.1875   15.3543 C.3         1 ROC       0.0688
     35 C26        17.8938   25.4211   15.0403 C.2         1 ROC       0.2251
     36 O5         17.2521   26.3759   14.6316 O.2         1 ROC      -0.3909
     37 C27        16.6194   23.5747   14.0261 C.3         1 ROC       0.0113
     38 C28        15.8762   22.2282   14.2785 C.3         1 ROC      -0.0261
     39 C29        15.3457   21.5590   12.9724 C.3         1 ROC      -0.0494
     40 C30        14.0882   22.2564   12.3903 C.3         1 ROC      -0.0528
     41 C31        12.9689   22.4149   13.4528 C.3         1 ROC      -0.0526
     42 C32        13.4783   23.1262   14.7343 C.3         1 ROC      -0.0451
     43 C33        14.7335   22.4108   15.3254 C.3         1 ROC       0.0024
     44 C34        15.2883   23.1178   16.5991 C.3         1 ROC      -0.0266
     45 N6         19.2201   25.4446   15.1721 N.am        1 ROC      -0.2771
     46 C35        20.2082   26.4538   14.8713 C.3         1 ROC       0.0448
     47 C36        20.9868   26.7192   16.1944 C.3         1 ROC      -0.0396
     48 C37        19.6849   27.8125   14.3100 C.3         1 ROC      -0.0396
     49 C38        21.1655   25.8147   13.8197 C.3         1 ROC      -0.0396
     50 H1         11.2825   21.0929   16.8890 H           1 ROC       0.0729
     51 H2          9.7979   19.3623   16.1445 H           1 ROC       0.0774
     52 H3          8.9872   16.9841   16.3102 H           1 ROC       0.0657
     53 H4          9.1096   14.8251   17.3789 H           1 ROC       0.0652
     54 H5         10.6860   14.4404   19.1783 H           1 ROC       0.0657
     55 H6         12.1574   16.2210   19.9200 H           1 ROC       0.0653
     56 H7         13.9264   19.6280   20.1151 H           1 ROC       0.1882
     57 H8         15.1321   21.1390   21.3843 H           1 ROC       0.0826
     58 H9         17.3209   20.3242   20.5627 H           1 ROC       0.0551
     59 H10        16.6666   20.1296   18.9388 H           1 ROC       0.0551
     60 H11        15.7283   16.8582   19.7202 H           1 ROC       0.1814
     61 H12        16.0854   17.9731   18.5176 H           1 ROC       0.1814
     62 H13        17.9031   23.4733   18.0780 H           1 ROC       0.0672
     63 H14        18.6177   26.1227   18.6533 H           1 ROC       0.2101
     64 H15        16.7287   25.0764   20.3558 H           1 ROC       0.0606
     65 H16        17.4030   22.4330   20.8691 H           1 ROC       0.1857
     66 H17        18.4722   24.2136   21.9403 H           1 ROC       0.0449
     67 H18        18.8989   25.5780   20.9525 H           1 ROC       0.0449
     68 H19        19.3938   21.8667   21.1764 H           1 ROC       0.0557
     69 H20        20.9937   25.5254   19.8070 H           1 ROC       0.0557
     70 H21        21.4194   20.7468   20.5149 H           1 ROC       0.0599
     71 H22        23.0238   24.3935   19.1833 H           1 ROC       0.0599
     72 H23        23.2433   21.9983   19.5193 H           1 ROC       0.0559
     73 H24        15.3963   25.0286   15.9403 H           1 ROC       0.2057
     74 H25        16.6365   26.1036   17.4398 H           1 ROC       0.0841
     75 H26        15.5525   25.0925   18.2964 H           1 ROC       0.0841
     76 H27        17.8708   23.4506   15.7599 H           1 ROC       0.1100
     77 H28        17.4506   23.3953   13.3415 H           1 ROC       0.0348
     78 H29        15.9424   24.2867   13.5488 H           1 ROC       0.0348
     79 H30        16.6101   21.5356   14.7075 H           1 ROC       0.0309
     80 H31        15.0928   20.5182   13.1938 H           1 ROC       0.0268
     81 H32        16.1346   21.5458   12.2169 H           1 ROC       0.0268
     82 H33        13.7060   21.6678   11.5515 H           1 ROC       0.0265
     83 H34        14.3642   23.2394   11.9998 H           1 ROC       0.0265
     84 H35        12.5842   21.4263   13.7194 H           1 ROC       0.0265
     85 H36        12.1418   22.9884   13.0259 H           1 ROC       0.0265
     86 H37        12.6720   23.1248   15.4732 H           1 ROC       0.0270
     87 H38        13.7065   24.1688   14.5055 H           1 ROC       0.0270
     88 H39        14.4007   21.4117   15.6349 H           1 ROC       0.0355
     89 H40        14.4301   23.3783   17.2082 H           1 ROC       0.0818
     90 H41        15.8929   22.3960   17.1544 H           1 ROC       0.0818
     91 H42        19.5980   24.6205   15.5199 H           1 ROC       0.1859
     92 H43        21.8119   27.4151   16.0294 H           1 ROC       0.0254
     93 H44        21.3982   25.7920   16.6005 H           1 ROC       0.0254
     94 H45        20.3202   27.1522   16.9431 H           1 ROC       0.0254
     95 H46        20.5176   28.4886   14.1034 H           1 ROC       0.0254
     96 H47        19.0280   28.2999   15.0310 H           1 ROC       0.0254
     97 H48        19.1348   27.6621   13.3800 H           1 ROC       0.0254
     98 H49        21.9840   26.4938   13.5696 H           1 ROC       0.0254
     99 H50        20.6165   25.5853   12.9031 H           1 ROC       0.0254
    100 H51        21.5998   24.8854   14.1960 H           1 ROC       0.0254
@<TRIPOS>BOND
     1     2     1   2
     2     2     4   1
     3    13     2  am
     4     4     3  ar
     5     3    12  ar
     6     4     5  ar
     7     5     6  ar
     8     6     7  ar
     9     7     8  ar
    10    12     7  ar
    11     8     9  ar
    12    10     9  ar
    13    11    10  ar
    14    12    11  ar
    15    14    13   1
    16    15    14   1
    17    14    17   1
    18    15    16   2
    19    24    15  am
    20    17    18   1
    21    18    19   2
    22    18    20  am
    23    21    22   1
    24    23    21   1
    25    21    33   1
    26    23    24   1
    27    23    25   1
    28    25    26   1
    29    26    27  ar
    30    26    28  ar
    31    27    29  ar
    32    28    30  ar
    33    29    31  ar
    34    30    31  ar
    35    33    32   1
    36    32    34   1
    37    32    44   1
    38    34    35   1
    39    34    37   1
    40    35    36   2
    41    35    45  am
    42    37    38   1
    43    38    39   1
    44    38    43   1
    45    39    40   1
    46    40    41   1
    47    41    42   1
    48    42    43   1
    49    43    44   1
    50    45    46   1
    51    46    47   1
    52    46    48   1
    53    46    49   1
    54     5    50   1
    55     6    51   1
    56     8    52   1
    57     9    53   1
    58    10    54   1
    59    11    55   1
    60    13    56   1
    61    14    57   1
    62    17    58   1
    63    17    59   1
    64    20    60   1
    65    20    61   1
    66    21    62   1
    67    22    63   1
    68    23    64   1
    69    24    65   1
    70    25    66   1
    71    25    67   1
    72    27    68   1
    73    28    69   1
    74    29    70   1
    75    30    71   1
    76    31    72   1
    77    32    73   1
    78    33    74   1
    79    33    75   1
    80    34    76   1
    81    37    77   1
    82    37    78   1
    83    38    79   1
    84    39    80   1
    85    39    81   1
    86    40    82   1
    87    40    83   1
    88    41    84   1
    89    41    85   1
    90    42    86   1
    91    42    87   1
    92    43    88   1
    93    44    89   1
    94    44    90   1
    95    45    91   1
    96    47    92   1
    97    47    93   1
    98    47    94   1
    99    48    95   1
   100    48    96   1
   101    48    97   1
   102    49    98   1
   103    49    99   1
   104    49   100   1
@<TRIPOS>SUBSTRUCTURE
     1  ROC      2

