@<TRIPOS>MOLECULE
3cyx_ligand_025
   100   104
SMALL
GAST_HUCK
****
This file was generated by PARSER (from files_GN.cpp)

@<TRIPOS>ATOM
      1 O1         12.6043   20.5697   19.6880 O.2         1 ROC      -0.3762
      2 C1         13.3061   20.3432   18.7075 C.2         1 ROC       0.2293
      3 N1         13.4536   19.6554   16.4252 N.ar        1 ROC      -0.2737
      4 C2         12.6934   20.0508   17.4895 C.ar        1 ROC       0.1219
      5 C3         11.2998   20.1919   17.2830 C.ar        1 ROC      -0.0136
      6 C4         10.7394   19.9434   16.0168 C.ar        1 ROC      -0.0314
      7 C5         11.5622   19.5448   14.9456 C.ar        1 ROC       0.0097
      8 C6         11.0584   19.3327   13.6432 C.ar        1 ROC      -0.0444
      9 C7         11.9279   18.9529   12.6031 C.ar        1 ROC      -0.0546
     10 C8         13.3007   18.7732   12.8582 C.ar        1 ROC      -0.0545
     11 C9R        13.8128   18.9933   14.1475 C.ar        1 ROC      -0.0370
     12 C10        12.9536   19.3866   15.1926 C.ar        1 ROC       0.0527
     13 N2         14.6295   20.3914   18.8304 N.am        1 ROC      -0.2600
     14 C11        15.3865   20.7899   19.9962 C.3         1 ROC       0.1473
     15 C12        16.4213   21.7545   19.6110 C.2         1 ROC       0.2045
     16 O2         17.3564   21.3773   18.9107 O.2         1 ROC      -0.3943
     17 C13        16.0033   19.5350   20.6889 C.3         1 ROC       0.0773
     18 C14        15.0568   18.8158   21.5245 C.2         1 ROC       0.1780
     19 O3         14.8201   17.6307   21.3336 O.2         1 ROC      -0.3970
     20 N3         14.4581   19.4174   22.5306 N.am        1 ROC      -0.3007
     21 C15        17.6837   24.4124   18.4024 C.3         1 ROC       0.1194
     22 O4         18.7999   25.3038   18.3446 O.3         1 ROC      -0.3840
     23 C16        17.2763   24.1051   19.8865 C.3         1 ROC       0.0823
     24 N4         16.3446   23.0138   20.0232 N.am        1 ROC      -0.2772
     25 C17        18.4398   24.0560   20.9375 C.3         1 ROC       0.0066
     26 C18        19.6764   23.3057   20.5882 C.ar        1 ROC      -0.0408
     27 C19        19.7166   21.8940   20.6566 C.ar        1 ROC      -0.0603
     28 C20        20.8767   23.9960   20.2808 C.ar        1 ROC      -0.0603
     29 C21        20.9019   21.1893   20.3751 C.ar        1 ROC      -0.0686
     30 C22        22.0629   23.2941   19.9987 C.ar        1 ROC      -0.0686
     31 C23        22.0746   21.8884   20.0446 C.ar        1 ROC      -0.0687
     32 N5         16.1784   24.3644   16.2350 N.4         1 ROC       0.2562
     33 C24        16.5209   25.0274   17.5430 C.3         1 ROC      -0.0008
     34 C25        17.2829   24.2819   15.2055 C.3         1 ROC       0.0688
     35 C26        17.9468   25.5538   14.9287 C.2         1 ROC       0.2251
     36 O5         17.2724   26.4656   14.4712 O.2         1 ROC      -0.3909
     37 C27        16.7468   23.7071   13.8556 C.3         1 ROC       0.0113
     38 C28        16.0495   22.3276   14.0522 C.3         1 ROC      -0.0261
     39 C29        15.4839   21.7124   12.7354 C.3         1 ROC      -0.0494
     40 C30        14.1931   22.4107   12.2386 C.3         1 ROC      -0.0528
     41 C31        13.1132   22.4826   13.3466 C.3         1 ROC      -0.0526
     42 C32        13.6512   23.1290   14.6485 C.3         1 ROC      -0.0451
     43 C33        14.9401   22.4115   15.1488 C.3         1 ROC       0.0024
     44 C34        15.5130   23.0364   16.4502 C.3         1 ROC      -0.0266
     45 N6         19.2646   25.6422   15.0883 N.am        1 ROC      -0.2771
     46 C35        20.2121   26.6764   14.7361 C.3         1 ROC       0.0448
     47 C36        20.9506   27.0780   16.0439 C.3         1 ROC      -0.0396
     48 C37        19.6267   27.9537   14.0579 C.3         1 ROC      -0.0396
     49 C38        21.2133   26.0076   13.7458 C.3         1 ROC      -0.0396
     50 H1         10.6821   20.5027   18.0356 H           1 ROC       0.0729
     51 H2          9.7335   20.0746   15.8816 H           1 ROC       0.0774
     52 H3         10.0641   19.4652   13.4403 H           1 ROC       0.0657
     53 H4         11.5654   18.8164   11.6559 H           1 ROC       0.0652
     54 H5         13.9306   18.4948   12.1024 H           1 ROC       0.0657
     55 H6         14.8110   18.8719   14.3247 H           1 ROC       0.0653
     56 H7         15.1494   20.1289   18.0516 H           1 ROC       0.1882
     57 H8         14.7299   21.2768   20.7318 H           1 ROC       0.0826
     58 H9         16.8395   19.8350   21.3257 H           1 ROC       0.0551
     59 H10        16.4109   18.8666   19.9230 H           1 ROC       0.0551
     60 H11        13.8515   18.9228   23.1042 H           1 ROC       0.1814
     61 H12        14.6445   20.3510   22.7196 H           1 ROC       0.1814
     62 H13        18.0287   23.4768   17.9547 H           1 ROC       0.0672
     63 H14        18.5234   26.1192   18.8181 H           1 ROC       0.2101
     64 H15        16.6911   24.9770   20.2116 H           1 ROC       0.0606
     65 H16        15.5360   23.2423   20.5064 H           1 ROC       0.1857
     66 H17        18.0463   23.6552   21.8749 H           1 ROC       0.0449
     67 H18        18.7110   25.0913   21.1695 H           1 ROC       0.0449
     68 H19        18.8889   21.3661   20.9300 H           1 ROC       0.0557
     69 H20        20.9003   25.0176   20.2656 H           1 ROC       0.0557
     70 H21        20.9092   20.1674   20.4154 H           1 ROC       0.0599
     71 H22        22.9158   23.8050   19.7644 H           1 ROC       0.0599
     72 H23        22.9364   21.3777   19.8348 H           1 ROC       0.0559
     73 H24        15.4550   24.9704   15.8366 H           1 ROC       0.2057
     74 H25        16.7498   26.0779   17.3308 H           1 ROC       0.0841
     75 H26        15.6060   25.0878   18.1407 H           1 ROC       0.0841
     76 H27        18.0293   23.5669   15.5667 H           1 ROC       0.1100
     77 H28        17.5801   23.5832   13.1586 H           1 ROC       0.0348
     78 H29        16.0440   24.4140   13.4085 H           1 ROC       0.0348
     79 H30        16.8168   21.6345   14.4100 H           1 ROC       0.0309
     80 H31        15.2535   20.6569   12.9155 H           1 ROC       0.0268
     81 H32        16.2424   21.7543   11.9510 H           1 ROC       0.0268
     82 H33        13.7914   21.8566   11.3893 H           1 ROC       0.0265
     83 H34        14.4333   23.4181   11.8952 H           1 ROC       0.0265
     84 H35        12.7628   21.4712   13.5698 H           1 ROC       0.0265
     85 H36        12.2560   23.0535   12.9890 H           1 ROC       0.0265
     86 H37        12.8771   23.0634   15.4166 H           1 ROC       0.0270
     87 H38        13.8574   24.1878   14.4784 H           1 ROC       0.0270
     88 H39        14.6512   21.3849   15.3958 H           1 ROC       0.0355
     89 H40        14.6915   23.1265   17.1698 H           1 ROC       0.0818
     90 H41        16.2308   22.3266   16.8659 H           1 ROC       0.0818
     91 H42        19.6762   24.8522   15.4768 H           1 ROC       0.1859
     92 H43        21.7240   27.8205   15.8397 H           1 ROC       0.0254
     93 H44        21.4230   26.2108   16.5091 H           1 ROC       0.0254
     94 H45        20.2447   27.5033   16.7589 H           1 ROC       0.0254
     95 H46        20.4319   28.6357   13.7805 H           1 ROC       0.0254
     96 H47        18.9563   28.4819   14.7368 H           1 ROC       0.0254
     97 H48        19.0740   27.6948   13.1538 H           1 ROC       0.0254
     98 H49        21.9951   26.7078   13.4449 H           1 ROC       0.0254
     99 H50        20.6879   25.6720   12.8487 H           1 ROC       0.0254
    100 H51        21.6950   25.1388   14.2004 H           1 ROC       0.0254
@<TRIPOS>BOND
     1     2     1   2
     2     2     4   1
     3    13     2  am
     4     4     3  ar
     5     3    12  ar
     6     4     5  ar
     7     5     6  ar
     8     6     7  ar
     9     7     8  ar
    10    12     7  ar
    11     8     9  ar
    12    10     9  ar
    13    11    10  ar
    14    12    11  ar
    15    14    13   1
    16    15    14   1
    17    14    17   1
    18    15    16   2
    19    24    15  am
    20    17    18   1
    21    18    19   2
    22    18    20  am
    23    21    22   1
    24    23    21   1
    25    21    33   1
    26    23    24   1
    27    23    25   1
    28    25    26   1
    29    26    27  ar
    30    26    28  ar
    31    27    29  ar
    32    28    30  ar
    33    29    31  ar
    34    30    31  ar
    35    33    32   1
    36    32    34   1
    37    32    44   1
    38    34    35   1
    39    34    37   1
    40    35    36   2
    41    35    45  am
    42    37    38   1
    43    38    39   1
    44    38    43   1
    45    39    40   1
    46    40    41   1
    47    41    42   1
    48    42    43   1
    49    43    44   1
    50    45    46   1
    51    46    47   1
    52    46    48   1
    53    46    49   1
    54     5    50   1
    55     6    51   1
    56     8    52   1
    57     9    53   1
    58    10    54   1
    59    11    55   1
    60    13    56   1
    61    14    57   1
    62    17    58   1
    63    17    59   1
    64    20    60   1
    65    20    61   1
    66    21    62   1
    67    22    63   1
    68    23    64   1
    69    24    65   1
    70    25    66   1
    71    25    67   1
    72    27    68   1
    73    28    69   1
    74    29    70   1
    75    30    71   1
    76    31    72   1
    77    32    73   1
    78    33    74   1
    79    33    75   1
    80    34    76   1
    81    37    77   1
    82    37    78   1
    83    38    79   1
    84    39    80   1
    85    39    81   1
    86    40    82   1
    87    40    83   1
    88    41    84   1
    89    41    85   1
    90    42    86   1
    91    42    87   1
    92    43    88   1
    93    44    89   1
    94    44    90   1
    95    45    91   1
    96    47    92   1
    97    47    93   1
    98    47    94   1
    99    48    95   1
   100    48    96   1
   101    48    97   1
   102    49    98   1
   103    49    99   1
   104    49   100   1
@<TRIPOS>SUBSTRUCTURE
     1  ROC      2

