@<TRIPOS>MOLECULE
3cyx_ligand_032
   100   104
SMALL
GAST_HUCK
****
This file was generated by PARSER (from files_GN.cpp)

@<TRIPOS>ATOM
      1 O1         20.8184   27.5007   18.2354 O.2         1 ROC      -0.3762
      2 C1         21.4048   26.4365   18.0705 C.2         1 ROC       0.2293
      3 N1         22.9775   24.8296   18.8356 N.ar        1 ROC      -0.2737
      4 C2         22.4994   26.1071   18.8657 C.ar        1 ROC       0.1219
      5 C3         23.1252   27.0202   19.7496 C.ar        1 ROC      -0.0136
      6 C4         24.2133   26.6009   20.5380 C.ar        1 ROC      -0.0314
      7 C5         24.6755   25.2714   20.4671 C.ar        1 ROC       0.0097
      8 C6         25.7615   24.8038   21.2413 C.ar        1 ROC      -0.0444
      9 C7         26.1701   23.4607   21.1446 C.ar        1 ROC      -0.0546
     10 C8         25.5030   22.5769   20.2765 C.ar        1 ROC      -0.0545
     11 C9R        24.4277   23.0350   19.4919 C.ar        1 ROC      -0.0370
     12 C10        24.0146   24.3779   19.5838 C.ar        1 ROC       0.0527
     13 N2         20.9957   25.5924   17.1308 N.am        1 ROC      -0.2600
     14 C11        19.7852   25.6374   16.3601 C.3         1 ROC       0.1473
     15 C12        19.1247   24.3516   16.5796 C.2         1 ROC       0.2045
     16 O2         19.2836   23.4432   15.7698 O.2         1 ROC      -0.3943
     17 C13        20.0888   25.9385   14.8559 C.3         1 ROC       0.0773
     18 C14        20.7421   27.2133   14.6067 C.2         1 ROC       0.1780
     19 O3         20.2631   28.2492   15.0434 O.2         1 ROC      -0.3970
     20 N3         21.8145   27.3044   13.8499 N.am        1 ROC      -0.3007
     21 C15        16.6292   22.5452   17.2174 C.3         1 ROC       0.1194
     22 O4         15.4986   23.2864   17.6761 O.3         1 ROC      -0.3840
     23 C16        17.8796   22.8605   18.1135 C.3         1 ROC       0.0823
     24 N4         18.4944   24.1099   17.7276 N.am        1 ROC      -0.2772
     25 C17        17.5547   22.8956   19.6422 C.3         1 ROC       0.0066
     26 C18        18.7409   22.6453   20.5066 C.ar        1 ROC      -0.0408
     27 C19        19.3644   23.6860   21.2356 C.ar        1 ROC      -0.0603
     28 C20        19.2571   21.3315   20.6329 C.ar        1 ROC      -0.0603
     29 C21        20.4707   23.4201   22.0690 C.ar        1 ROC      -0.0686
     30 C22        20.3491   21.0624   21.4766 C.ar        1 ROC      -0.0686
     31 C23        20.9616   22.1060   22.1898 C.ar        1 ROC      -0.0687
     32 N5         15.3047   20.4451   18.0321 N.4         1 ROC       0.2562
     33 C24        16.2966   21.0259   17.0385 C.3         1 ROC      -0.0008
     34 C25        13.9709   20.0506   17.4306 C.3         1 ROC       0.0688
     35 C26        13.3101   21.1790   16.7657 C.2         1 ROC       0.2251
     36 O5         12.9346   22.1313   17.4402 O.2         1 ROC      -0.3909
     37 C27        12.9809   19.4174   18.4638 C.3         1 ROC       0.0113
     38 C28        13.6264   18.2624   19.2833 C.3         1 ROC      -0.0261
     39 C29        12.6713   17.6930   20.3783 C.3         1 ROC      -0.0494
     40 C30        12.5045   18.6363   21.5988 C.3         1 ROC      -0.0528
     41 C31        13.8704   19.0620   22.1932 C.3         1 ROC      -0.0526
     42 C32        14.8159   19.6614   21.1203 C.3         1 ROC      -0.0451
     43 C33        14.9923   18.7039   19.9024 C.3         1 ROC       0.0024
     44 C34        15.9127   19.3016   18.7984 C.3         1 ROC      -0.0266
     45 N6         13.2445   21.1974   15.4370 N.am        1 ROC      -0.2771
     46 C35        12.6545   22.1680   14.5432 C.3         1 ROC       0.0448
     47 C36        12.8824   23.6507   14.9805 C.3         1 ROC      -0.0396
     48 C37        11.1279   21.8783   14.4102 C.3         1 ROC      -0.0396
     49 C38        13.3536   21.9555   13.1624 C.3         1 ROC      -0.0396
     50 H1         22.8040   27.9898   19.8231 H           1 ROC       0.0729
     51 H2         24.6621   27.2717   21.1670 H           1 ROC       0.0774
     52 H3         26.2552   25.4335   21.8783 H           1 ROC       0.0657
     53 H4         26.9535   23.1247   21.7100 H           1 ROC       0.0652
     54 H5         25.7999   21.6011   20.2139 H           1 ROC       0.0657
     55 H6         23.9496   22.3889   18.8589 H           1 ROC       0.0653
     56 H7         21.5647   24.8251   16.9703 H           1 ROC       0.1882
     57 H8         19.1111   26.4246   16.7174 H           1 ROC       0.0826
     58 H9         19.1442   25.9434   14.3037 H           1 ROC       0.0551
     59 H10        20.7006   25.1302   14.4422 H           1 ROC       0.0551
     60 H11        22.2003   28.1735   13.6578 H           1 ROC       0.1814
     61 H12        22.2118   26.5085   13.4574 H           1 ROC       0.1814
     62 H13        16.8387   22.9227   16.2119 H           1 ROC       0.0672
     63 H14        14.8289   23.2006   16.9671 H           1 ROC       0.2101
     64 H15        18.6216   22.0754   17.9492 H           1 ROC       0.0606
     65 H16        18.4760   24.8340   18.3759 H           1 ROC       0.1857
     66 H17        16.8075   22.1393   19.8875 H           1 ROC       0.0449
     67 H18        17.1027   23.8586   19.8917 H           1 ROC       0.0449
     68 H19        19.0188   24.6479   21.1662 H           1 ROC       0.0557
     69 H20        18.8226   20.5569   20.1286 H           1 ROC       0.0557
     70 H21        20.9127   24.1788   22.5931 H           1 ROC       0.0599
     71 H22        20.6944   20.1041   21.5698 H           1 ROC       0.0599
     72 H23        21.7613   21.9078   22.7949 H           1 ROC       0.0559
     73 H24        15.0995   21.1762   18.7182 H           1 ROC       0.2057
     74 H25        17.2398   20.4719   17.0294 H           1 ROC       0.0841
     75 H26        15.9286   20.8913   16.0166 H           1 ROC       0.0841
     76 H27        14.1706   19.2680   16.6858 H           1 ROC       0.1100
     77 H28        12.1100   19.0239   17.9280 H           1 ROC       0.0348
     78 H29        12.6272   20.1938   19.1446 H           1 ROC       0.0348
     79 H30        13.8221   17.4446   18.5788 H           1 ROC       0.0309
     80 H31        13.0757   16.7390   20.7309 H           1 ROC       0.0268
     81 H32        11.6885   17.4872   19.9471 H           1 ROC       0.0268
     82 H33        11.9225   18.1253   22.3711 H           1 ROC       0.0265
     83 H34        11.9440   19.5280   21.3061 H           1 ROC       0.0265
     84 H35        14.3467   18.1893   22.6473 H           1 ROC       0.0265
     85 H36        13.7060   19.8011   22.9818 H           1 ROC       0.0265
     86 H37        15.7901   19.8478   21.5805 H           1 ROC       0.0270
     87 H38        14.4183   20.6220   20.7925 H           1 ROC       0.0270
     88 H39        15.4929   17.8017   20.2719 H           1 ROC       0.0355
     89 H40        16.8407   19.6308   19.2721 H           1 ROC       0.0818
     90 H41        16.1782   18.4954   18.1028 H           1 ROC       0.0818
     91 H42        13.6568   20.4342   14.9907 H           1 ROC       0.1859
     92 H43        12.5315   24.3337   14.2068 H           1 ROC       0.0254
     93 H44        13.9424   23.8424   15.1536 H           1 ROC       0.0254
     94 H45        12.3296   23.8843   15.8891 H           1 ROC       0.0254
     95 H46        10.6588   22.5534   13.6893 H           1 ROC       0.0254
     96 H47        10.6288   22.0071   15.3748 H           1 ROC       0.0254
     97 H48        10.9599   20.8509   14.0764 H           1 ROC       0.0254
     98 H49        12.9799   22.6530   12.4100 H           1 ROC       0.0254
     99 H50        13.1914   20.9410   12.7928 H           1 ROC       0.0254
    100 H51        14.4327   22.1106   13.2573 H           1 ROC       0.0254
@<TRIPOS>BOND
     1     2     1   2
     2     2     4   1
     3    13     2  am
     4     4     3  ar
     5     3    12  ar
     6     4     5  ar
     7     5     6  ar
     8     6     7  ar
     9     7     8  ar
    10    12     7  ar
    11     8     9  ar
    12    10     9  ar
    13    11    10  ar
    14    12    11  ar
    15    14    13   1
    16    15    14   1
    17    14    17   1
    18    15    16   2
    19    24    15  am
    20    17    18   1
    21    18    19   2
    22    18    20  am
    23    21    22   1
    24    23    21   1
    25    21    33   1
    26    23    24   1
    27    23    25   1
    28    25    26   1
    29    26    27  ar
    30    26    28  ar
    31    27    29  ar
    32    28    30  ar
    33    29    31  ar
    34    30    31  ar
    35    33    32   1
    36    32    34   1
    37    32    44   1
    38    34    35   1
    39    34    37   1
    40    35    36   2
    41    35    45  am
    42    37    38   1
    43    38    39   1
    44    38    43   1
    45    39    40   1
    46    40    41   1
    47    41    42   1
    48    42    43   1
    49    43    44   1
    50    45    46   1
    51    46    47   1
    52    46    48   1
    53    46    49   1
    54     5    50   1
    55     6    51   1
    56     8    52   1
    57     9    53   1
    58    10    54   1
    59    11    55   1
    60    13    56   1
    61    14    57   1
    62    17    58   1
    63    17    59   1
    64    20    60   1
    65    20    61   1
    66    21    62   1
    67    22    63   1
    68    23    64   1
    69    24    65   1
    70    25    66   1
    71    25    67   1
    72    27    68   1
    73    28    69   1
    74    29    70   1
    75    30    71   1
    76    31    72   1
    77    32    73   1
    78    33    74   1
    79    33    75   1
    80    34    76   1
    81    37    77   1
    82    37    78   1
    83    38    79   1
    84    39    80   1
    85    39    81   1
    86    40    82   1
    87    40    83   1
    88    41    84   1
    89    41    85   1
    90    42    86   1
    91    42    87   1
    92    43    88   1
    93    44    89   1
    94    44    90   1
    95    45    91   1
    96    47    92   1
    97    47    93   1
    98    47    94   1
    99    48    95   1
   100    48    96   1
   101    48    97   1
   102    49    98   1
   103    49    99   1
   104    49   100   1
@<TRIPOS>SUBSTRUCTURE
     1  ROC      2

