@<TRIPOS>MOLECULE
3cyx_ligand_006
   100   104
SMALL
GAST_HUCK
****
This file was generated by PARSER (from files_GN.cpp)

@<TRIPOS>ATOM
      1 O1         14.3957   20.4216   13.6424 O.2         1 ROC      -0.3762
      2 C1         14.1517   20.3627   14.8450 C.2         1 ROC       0.2293
      3 N1         12.8094   19.5161   16.6271 N.ar        1 ROC      -0.2737
      4 C2         13.1601   19.5051   15.3100 C.ar        1 ROC       0.1219
      5 C3         12.4919   18.5871   14.4557 C.ar        1 ROC      -0.0136
      6 C4         11.5290   17.7100   14.9836 C.ar        1 ROC      -0.0314
      7 C5         11.2030   17.7497   16.3516 C.ar        1 ROC       0.0097
      8 C6         10.2453   16.8850   16.9219 C.ar        1 ROC      -0.0444
      9 C7          9.9488   16.9612   18.2957 C.ar        1 ROC      -0.0546
     10 C8         10.6025   17.9105   19.1052 C.ar        1 ROC      -0.0545
     11 C9R        11.5590   18.7771   18.5471 C.ar        1 ROC      -0.0370
     12 C10        11.8694   18.6998   17.1762 C.ar        1 ROC       0.0527
     13 N2         14.8759   21.0964   15.6910 N.am        1 ROC      -0.2600
     14 C11        15.9721   21.9639   15.3412 C.3         1 ROC       0.1473
     15 C12        16.8201   22.1076   16.5240 C.2         1 ROC       0.2045
     16 O2         17.8106   21.3967   16.6164 O.2         1 ROC      -0.3943
     17 C13        15.4363   23.2956   14.7214 C.3         1 ROC       0.0773
     18 C14        16.4691   24.2320   14.3182 C.2         1 ROC       0.1780
     19 O3         17.4744   23.8406   13.7353 O.2         1 ROC      -0.3970
     20 N3         16.3462   25.5282   14.5295 N.am        1 ROC      -0.3007
     21 C15        18.2767   24.2266   18.6480 C.3         1 ROC       0.1194
     22 O4         17.7474   25.4201   18.0487 O.3         1 ROC      -0.3840
     23 C16        17.1105   23.1772   18.7728 C.3         1 ROC       0.0823
     24 N4         16.4451   22.9074   17.5226 N.am        1 ROC      -0.2772
     25 C17        17.4856   21.9182   19.6184 C.3         1 ROC       0.0066
     26 C18        16.4764   20.8254   19.6027 C.ar        1 ROC      -0.0408
     27 C19        15.3815   20.8329   20.5009 C.ar        1 ROC      -0.0603
     28 C20        16.6204   19.7196   18.7241 C.ar        1 ROC      -0.0603
     29 C21        14.4877   19.7408   20.5527 C.ar        1 ROC      -0.0686
     30 C22        15.7253   18.6293   18.7813 C.ar        1 ROC      -0.0686
     31 C23        14.6572   18.6393   19.6960 C.ar        1 ROC      -0.0687
     32 N5         20.9013   24.1086   18.4876 N.4         1 ROC       0.2562
     33 C24        19.5678   23.7873   17.8674 C.3         1 ROC      -0.0008
     34 C25        21.1952   25.5671   18.7478 C.3         1 ROC       0.0688
     35 C26        21.0053   26.4307   17.5849 C.2         1 ROC       0.2251
     36 O5         20.7011   27.6051   17.7910 O.2         1 ROC      -0.3909
     37 C27        22.6543   25.7699   19.2810 C.3         1 ROC       0.0113
     38 C28        22.9509   24.8832   20.5233 C.3         1 ROC      -0.0261
     39 C29        24.4016   25.0400   21.0691 C.3         1 ROC      -0.0494
     40 C30        25.4750   24.3463   20.1890 C.3         1 ROC      -0.0528
     41 C31        25.1210   22.8640   19.8947 C.3         1 ROC      -0.0526
     42 C32        23.6903   22.7062   19.3182 C.3         1 ROC      -0.0451
     43 C33        22.6274   23.3818   20.2400 C.3         1 ROC       0.0024
     44 C34        21.1784   23.2448   19.6886 C.3         1 ROC      -0.0266
     45 N6         21.2428   25.9798   16.3507 N.am        1 ROC      -0.2771
     46 C35        21.0974   26.5884   15.0489 C.3         1 ROC       0.0448
     47 C36        20.5016   28.0308   15.0139 C.3         1 ROC      -0.0396
     48 C37        20.1709   25.6425   14.2261 C.3         1 ROC      -0.0396
     49 C38        22.5111   26.6174   14.3952 C.3         1 ROC      -0.0396
     50 H1         12.7170   18.5333   13.4598 H           1 ROC       0.0729
     51 H2         11.0718   17.0417   14.3571 H           1 ROC       0.0774
     52 H3          9.7588   16.1950   16.3458 H           1 ROC       0.0657
     53 H4          9.2526   16.3379   18.7052 H           1 ROC       0.0652
     54 H5         10.3796   17.9648   20.1030 H           1 ROC       0.0657
     55 H6         12.0192   19.4745   19.1417 H           1 ROC       0.0653
     56 H7         14.6652   21.0096   16.6382 H           1 ROC       0.1882
     57 H8         16.5710   21.4637   14.5666 H           1 ROC       0.0826
     58 H9         14.7481   23.7654   15.4326 H           1 ROC       0.0551
     59 H10        14.8554   23.0486   13.8290 H           1 ROC       0.0551
     60 H11        17.0386   26.1378   14.2205 H           1 ROC       0.1814
     61 H12        15.5478   25.8795   14.9687 H           1 ROC       0.1814
     62 H13        18.5513   24.5055   19.6726 H           1 ROC       0.0672
     63 H14        18.1360   26.1594   18.5738 H           1 ROC       0.2101
     64 H15        16.3413   23.6927   19.3647 H           1 ROC       0.0606
     65 H16        15.5948   23.3662   17.4002 H           1 ROC       0.1857
     66 H17        17.6492   22.2212   20.6527 H           1 ROC       0.0449
     67 H18        18.4411   21.5283   19.2787 H           1 ROC       0.0449
     68 H19        15.2468   21.6204   21.1492 H           1 ROC       0.0557
     69 H20        17.3907   19.6989   18.0390 H           1 ROC       0.0557
     70 H21        13.7109   19.7520   21.2186 H           1 ROC       0.0599
     71 H22        15.8572   17.8319   18.1474 H           1 ROC       0.0599
     72 H23        14.0196   17.8484   19.7451 H           1 ROC       0.0559
     73 H24        21.5873   23.8218   17.7812 H           1 ROC       0.2057
     74 H25        19.5287   24.2125   16.8677 H           1 ROC       0.0841
     75 H26        19.5560   22.7151   17.7057 H           1 ROC       0.0841
     76 H27        20.5144   25.9040   19.5402 H           1 ROC       0.1100
     77 H28        22.7911   26.8217   19.5607 H           1 ROC       0.0348
     78 H29        23.3642   25.5463   18.4796 H           1 ROC       0.0348
     79 H30        22.2790   25.2236   21.3219 H           1 ROC       0.0309
     80 H31        24.4444   24.6001   22.0714 H           1 ROC       0.0268
     81 H32        24.6492   26.1013   21.1735 H           1 ROC       0.0268
     82 H33        26.4402   24.3871   20.7050 H           1 ROC       0.0265
     83 H34        25.5838   24.8895   19.2449 H           1 ROC       0.0265
     84 H35        25.2023   22.2874   20.8198 H           1 ROC       0.0265
     85 H36        25.8448   22.4583   19.1824 H           1 ROC       0.0265
     86 H37        23.4690   21.6398   19.2273 H           1 ROC       0.0270
     87 H38        23.6580   23.1367   18.3137 H           1 ROC       0.0270
     88 H39        22.6540   22.8493   21.1970 H           1 ROC       0.0355
     89 H40        21.0133   22.1887   19.4436 H           1 ROC       0.0818
     90 H41        20.4875   23.4930   20.5016 H           1 ROC       0.0818
     91 H42        21.5622   25.0678   16.3222 H           1 ROC       0.1859
     92 H43        20.4012   28.3885   13.9821 H           1 ROC       0.0254
     93 H44        21.1522   28.7242   15.5561 H           1 ROC       0.0254
     94 H45        19.5080   28.0459   15.4707 H           1 ROC       0.0254
     95 H46        20.0917   25.9724   13.1871 H           1 ROC       0.0254
     96 H47        19.1669   25.6296   14.6608 H           1 ROC       0.0254
     97 H48        20.5559   24.6181   14.2287 H           1 ROC       0.0254
     98 H49        22.4618   27.0130   13.3737 H           1 ROC       0.0254
     99 H50        22.9327   25.6073   14.3514 H           1 ROC       0.0254
    100 H51        23.1889   27.2494   14.9784 H           1 ROC       0.0254
@<TRIPOS>BOND
     1     2     1   2
     2     2     4   1
     3    13     2  am
     4     4     3  ar
     5     3    12  ar
     6     4     5  ar
     7     5     6  ar
     8     6     7  ar
     9     7     8  ar
    10    12     7  ar
    11     8     9  ar
    12    10     9  ar
    13    11    10  ar
    14    12    11  ar
    15    14    13   1
    16    15    14   1
    17    14    17   1
    18    15    16   2
    19    24    15  am
    20    17    18   1
    21    18    19   2
    22    18    20  am
    23    21    22   1
    24    23    21   1
    25    21    33   1
    26    23    24   1
    27    23    25   1
    28    25    26   1
    29    26    27  ar
    30    26    28  ar
    31    27    29  ar
    32    28    30  ar
    33    29    31  ar
    34    30    31  ar
    35    33    32   1
    36    32    34   1
    37    32    44   1
    38    34    35   1
    39    34    37   1
    40    35    36   2
    41    35    45  am
    42    37    38   1
    43    38    39   1
    44    38    43   1
    45    39    40   1
    46    40    41   1
    47    41    42   1
    48    42    43   1
    49    43    44   1
    50    45    46   1
    51    46    47   1
    52    46    48   1
    53    46    49   1
    54     5    50   1
    55     6    51   1
    56     8    52   1
    57     9    53   1
    58    10    54   1
    59    11    55   1
    60    13    56   1
    61    14    57   1
    62    17    58   1
    63    17    59   1
    64    20    60   1
    65    20    61   1
    66    21    62   1
    67    22    63   1
    68    23    64   1
    69    24    65   1
    70    25    66   1
    71    25    67   1
    72    27    68   1
    73    28    69   1
    74    29    70   1
    75    30    71   1
    76    31    72   1
    77    32    73   1
    78    33    74   1
    79    33    75   1
    80    34    76   1
    81    37    77   1
    82    37    78   1
    83    38    79   1
    84    39    80   1
    85    39    81   1
    86    40    82   1
    87    40    83   1
    88    41    84   1
    89    41    85   1
    90    42    86   1
    91    42    87   1
    92    43    88   1
    93    44    89   1
    94    44    90   1
    95    45    91   1
    96    47    92   1
    97    47    93   1
    98    47    94   1
    99    48    95   1
   100    48    96   1
   101    48    97   1
   102    49    98   1
   103    49    99   1
   104    49   100   1
@<TRIPOS>SUBSTRUCTURE
     1  ROC      2

