@<TRIPOS>MOLECULE
3cyx_ligand_022
   100   104
SMALL
GAST_HUCK
****
This file was generated by PARSER (from files_GN.cpp)

@<TRIPOS>ATOM
      1 O1         19.2785   25.2405   12.8672 O.2         1 ROC      -0.3762
      2 C1         19.2422   25.6044   14.0372 C.2         1 ROC       0.2293
      3 N1         20.4489   26.2249   16.0042 N.ar        1 ROC      -0.2737
      4 C2         20.3870   26.1233   14.6443 C.ar        1 ROC       0.1219
      5 C3         21.5124   26.5591   13.9045 C.ar        1 ROC      -0.0136
      6 C4         22.6456   27.0632   14.5660 C.ar        1 ROC      -0.0314
      7 C5         22.6693   27.1342   15.9733 C.ar        1 ROC       0.0097
      8 C6         23.7935   27.6101   16.6827 C.ar        1 ROC      -0.0444
      9 C7         23.7745   27.6453   18.0908 C.ar        1 ROC      -0.0546
     10 C8         22.6306   27.2288   18.7959 C.ar        1 ROC      -0.0545
     11 C9R        21.5021   26.7633   18.0973 C.ar        1 ROC      -0.0370
     12 C10        21.5205   26.7018   16.6897 C.ar        1 ROC       0.0527
     13 N2         18.1183   25.5121   14.7418 N.am        1 ROC      -0.2600
     14 C11        16.7980   25.0355   14.4114 C.3         1 ROC       0.1473
     15 C12        16.5217   23.9510   15.3504 C.2         1 ROC       0.2045
     16 O2         16.9531   22.8310   15.1015 O.2         1 ROC      -0.3943
     17 C13        16.4225   24.6712   12.9273 C.3         1 ROC       0.0773
     18 C14        16.4965   25.7514   11.9482 C.2         1 ROC       0.1780
     19 O3         17.1379   26.7707   12.1584 O.2         1 ROC      -0.3970
     20 N3         15.8623   25.6862   10.7938 N.am        1 ROC      -0.3007
     21 C15        13.9821   23.1699   17.6191 C.3         1 ROC       0.1194
     22 O4         13.3801   23.3067   18.9090 O.3         1 ROC      -0.3840
     23 C16        15.5595   23.3051   17.5716 C.3         1 ROC       0.0823
     24 N4         15.9095   24.2118   16.5050 N.am        1 ROC      -0.2772
     25 C17        16.2182   23.7876   18.9113 C.3         1 ROC       0.0066
     26 C18        17.6027   23.2778   19.1454 C.ar        1 ROC      -0.0408
     27 C19        18.7207   23.9089   18.5520 C.ar        1 ROC      -0.0603
     28 C20        17.8294   22.1622   19.9934 C.ar        1 ROC      -0.0603
     29 C21        20.0256   23.4449   18.8083 C.ar        1 ROC      -0.0686
     30 C22        19.1319   21.7000   20.2496 C.ar        1 ROC      -0.0686
     31 C23        20.2311   22.3462   19.6614 C.ar        1 ROC      -0.0687
     32 N5         13.1940   20.6894   17.9721 N.4         1 ROC       0.2562
     33 C24        13.4289   21.8387   17.0093 C.3         1 ROC      -0.0008
     34 C25        12.3445   19.5631   17.4181 C.3         1 ROC       0.0688
     35 C26        11.0427   20.0161   16.9094 C.2         1 ROC       0.2251
     36 O5         10.1378   20.2525   17.6971 O.2         1 ROC      -0.3909
     37 C27        12.1174   18.4223   18.4658 C.3         1 ROC       0.0113
     38 C28        13.4389   17.9031   19.1006 C.3         1 ROC      -0.0261
     39 C29        13.1999   16.8335   20.2121 C.3         1 ROC      -0.0494
     40 C30        12.6898   17.4200   21.5573 C.3         1 ROC      -0.0528
     41 C31        13.5913   18.5775   22.0532 C.3         1 ROC      -0.0526
     42 C32        13.7630   19.6737   20.9717 C.3         1 ROC      -0.0451
     43 C33        14.3107   19.0807   19.6355 C.3         1 ROC       0.0024
     44 C34        14.4853   20.1674   18.5393 C.3         1 ROC      -0.0266
     45 N6         10.9312   20.3252   15.6202 N.am        1 ROC      -0.2771
     46 C35         9.8151   20.8861   14.8946 C.3         1 ROC       0.0448
     47 C36         8.7740   19.7610   14.6218 C.3         1 ROC      -0.0396
     48 C37        10.4102   21.3948   13.5454 C.3         1 ROC      -0.0396
     49 C38         9.1394   22.0996   15.6133 C.3         1 ROC      -0.0396
     50 H1         21.5062   26.5352   12.8846 H           1 ROC       0.0729
     51 H2         23.4454   27.3763   14.0107 H           1 ROC       0.0774
     52 H3         24.6333   27.9202   16.1834 H           1 ROC       0.0657
     53 H4         24.5962   27.9750   18.6028 H           1 ROC       0.0652
     54 H5         22.6237   27.2554   19.8181 H           1 ROC       0.0657
     55 H6         20.6746   26.4592   18.6152 H           1 ROC       0.0653
     56 H7         18.1927   25.8330   15.6563 H           1 ROC       0.1882
     57 H8         16.1430   25.8775   14.6638 H           1 ROC       0.0826
     58 H9         15.3905   24.3069   12.9286 H           1 ROC       0.0551
     59 H10        17.0528   23.8497   12.5742 H           1 ROC       0.0551
     60 H11        15.9070   26.4387   10.1761 H           1 ROC       0.1814
     61 H12        15.3304   24.9081   10.5550 H           1 ROC       0.1814
     62 H13        13.5548   24.0003   17.0422 H           1 ROC       0.0672
     63 H14        13.8406   24.0421   19.3665 H           1 ROC       0.2101
     64 H15        15.9786   22.3207   17.3548 H           1 ROC       0.0606
     65 H16        15.6192   25.1316   16.6289 H           1 ROC       0.1857
     66 H17        15.6103   23.4603   19.7553 H           1 ROC       0.0449
     67 H18        16.2153   24.8811   18.9580 H           1 ROC       0.0449
     68 H19        18.5921   24.7178   17.9420 H           1 ROC       0.0557
     69 H20        17.0461   21.6769   20.4343 H           1 ROC       0.0557
     70 H21        20.8274   23.9062   18.3762 H           1 ROC       0.0599
     71 H22        19.2792   20.8968   20.8650 H           1 ROC       0.0599
     72 H23        21.1804   22.0129   19.8519 H           1 ROC       0.0559
     73 H24        12.6675   21.0790   18.7573 H           1 ROC       0.2057
     74 H25        14.0663   21.5140   16.1813 H           1 ROC       0.0841
     75 H26        12.4762   22.1172   16.5609 H           1 ROC       0.0841
     76 H27        12.8985   19.1109   16.5858 H           1 ROC       0.1100
     77 H28        11.6106   17.5829   17.9798 H           1 ROC       0.0348
     78 H29        11.4640   18.7862   19.2613 H           1 ROC       0.0348
     79 H30        14.0015   17.4062   18.3004 H           1 ROC       0.0309
     80 H31        14.1485   16.3239   20.4013 H           1 ROC       0.0268
     81 H32        12.4912   16.0791   19.8601 H           1 ROC       0.0268
     82 H33        12.6739   16.6287   22.3122 H           1 ROC       0.0265
     83 H34        11.6637   17.7807   21.4403 H           1 ROC       0.0265
     84 H35        14.5729   18.1799   22.3225 H           1 ROC       0.0265
     85 H36        13.1532   19.0200   22.9500 H           1 ROC       0.0265
     86 H37        14.4555   20.4311   21.3510 H           1 ROC       0.0270
     87 H38        12.8004   20.1634   20.8016 H           1 ROC       0.0270
     88 H39        15.3105   18.6836   19.8492 H           1 ROC       0.0355
     89 H40        15.0460   20.9777   19.0008 H           1 ROC       0.0818
     90 H41        15.1048   19.7592   17.7322 H           1 ROC       0.0818
     91 H42        11.7353   20.1838   15.0941 H           1 ROC       0.1859
     92 H43         7.9456   20.1315   14.0162 H           1 ROC       0.0254
     93 H44         8.3652   19.3799   15.5583 H           1 ROC       0.0254
     94 H45         9.2384   18.9277   14.0907 H           1 ROC       0.0254
     95 H46         9.6351   21.8105   12.9002 H           1 ROC       0.0254
     96 H47        10.8994   20.5808   13.0064 H           1 ROC       0.0254
     97 H48        11.1528   22.1767   13.7256 H           1 ROC       0.0254
     98 H49         8.4684   22.6325   14.9353 H           1 ROC       0.0254
     99 H50         9.8976   22.8009   15.9646 H           1 ROC       0.0254
    100 H51         8.5452   21.7777   16.4703 H           1 ROC       0.0254
@<TRIPOS>BOND
     1     2     1   2
     2     2     4   1
     3    13     2  am
     4     4     3  ar
     5     3    12  ar
     6     4     5  ar
     7     5     6  ar
     8     6     7  ar
     9     7     8  ar
    10    12     7  ar
    11     8     9  ar
    12    10     9  ar
    13    11    10  ar
    14    12    11  ar
    15    14    13   1
    16    15    14   1
    17    14    17   1
    18    15    16   2
    19    24    15  am
    20    17    18   1
    21    18    19   2
    22    18    20  am
    23    21    22   1
    24    23    21   1
    25    21    33   1
    26    23    24   1
    27    23    25   1
    28    25    26   1
    29    26    27  ar
    30    26    28  ar
    31    27    29  ar
    32    28    30  ar
    33    29    31  ar
    34    30    31  ar
    35    33    32   1
    36    32    34   1
    37    32    44   1
    38    34    35   1
    39    34    37   1
    40    35    36   2
    41    35    45  am
    42    37    38   1
    43    38    39   1
    44    38    43   1
    45    39    40   1
    46    40    41   1
    47    41    42   1
    48    42    43   1
    49    43    44   1
    50    45    46   1
    51    46    47   1
    52    46    48   1
    53    46    49   1
    54     5    50   1
    55     6    51   1
    56     8    52   1
    57     9    53   1
    58    10    54   1
    59    11    55   1
    60    13    56   1
    61    14    57   1
    62    17    58   1
    63    17    59   1
    64    20    60   1
    65    20    61   1
    66    21    62   1
    67    22    63   1
    68    23    64   1
    69    24    65   1
    70    25    66   1
    71    25    67   1
    72    27    68   1
    73    28    69   1
    74    29    70   1
    75    30    71   1
    76    31    72   1
    77    32    73   1
    78    33    74   1
    79    33    75   1
    80    34    76   1
    81    37    77   1
    82    37    78   1
    83    38    79   1
    84    39    80   1
    85    39    81   1
    86    40    82   1
    87    40    83   1
    88    41    84   1
    89    41    85   1
    90    42    86   1
    91    42    87   1
    92    43    88   1
    93    44    89   1
    94    44    90   1
    95    45    91   1
    96    47    92   1
    97    47    93   1
    98    47    94   1
    99    48    95   1
   100    48    96   1
   101    48    97   1
   102    49    98   1
   103    49    99   1
   104    49   100   1
@<TRIPOS>SUBSTRUCTURE
     1  ROC      2

