@<TRIPOS>MOLECULE
3cyx_ligand_013
   100   104
SMALL
GAST_HUCK
****
This file was generated by PARSER (from files_GN.cpp)

@<TRIPOS>ATOM
      1 O1         21.0677   27.7859   21.4875 O.2         1 ROC      -0.3762
      2 C1         22.1266   27.1958   21.2977 C.2         1 ROC       0.2293
      3 N1         24.3321   26.7863   22.0284 N.ar        1 ROC      -0.2737
      4 C2         23.0264   27.0250   22.3374 C.ar        1 ROC       0.1219
      5 C3         22.6617   27.0561   23.7044 C.ar        1 ROC      -0.0136
      6 C4         23.6362   26.8097   24.6922 C.ar        1 ROC      -0.0314
      7 C5         24.9749   26.5569   24.3227 C.ar        1 ROC       0.0097
      8 C6         25.9930   26.3079   25.2671 C.ar        1 ROC      -0.0444
      9 C7         27.3187   26.0864   24.8376 C.ar        1 ROC      -0.0546
     10 C8         27.6351   26.1184   23.4677 C.ar        1 ROC      -0.0545
     11 C9R        26.6293   26.3601   22.5156 C.ar        1 ROC      -0.0370
     12 C10        25.3042   26.5671   22.9411 C.ar        1 ROC       0.0527
     13 N2         22.4036   26.6455   20.1236 N.am        1 ROC      -0.2600
     14 C11        21.6265   26.6899   18.9219 C.3         1 ROC       0.1473
     15 C12        20.8507   25.4395   18.8890 C.2         1 ROC       0.2045
     16 O2         21.4287   24.3886   18.6462 O.2         1 ROC      -0.3943
     17 C13        22.5597   26.8869   17.6743 C.3         1 ROC       0.0773
     18 C14        23.7308   27.7269   17.8534 C.2         1 ROC       0.1780
     19 O3         24.4637   27.5583   18.8158 O.2         1 ROC      -0.3970
     20 N3         24.1449   28.5499   16.9122 N.am        1 ROC      -0.3007
     21 C15        17.2764   24.5444   19.6693 C.3         1 ROC       0.1194
     22 O4         16.5742   23.3450   20.0233 O.3         1 ROC      -0.3840
     23 C16        18.8048   24.2059   19.5666 C.3         1 ROC       0.0823
     24 N4         19.5873   25.3953   19.3108 N.am        1 ROC      -0.2772
     25 C17        19.3137   23.5125   20.8831 C.3         1 ROC       0.0066
     26 C18        20.7646   23.1830   20.8950 C.ar        1 ROC      -0.0408
     27 C19        21.6913   23.9973   21.5894 C.ar        1 ROC      -0.0603
     28 C20        21.2529   22.0696   20.1695 C.ar        1 ROC      -0.0603
     29 C21        23.0732   23.7496   21.4991 C.ar        1 ROC      -0.0686
     30 C22        22.6343   21.8188   20.0891 C.ar        1 ROC      -0.0686
     31 C23        23.5452   22.6656   20.7407 C.ar        1 ROC      -0.0687
     32 N5         15.8962   24.4549   17.3281 N.4         1 ROC       0.2562
     33 C24        16.5586   25.2395   18.4495 C.3         1 ROC      -0.0008
     34 C25        16.8182   23.5312   16.5684 C.3         1 ROC       0.0688
     35 C26        17.9327   24.2473   15.9529 C.2         1 ROC       0.2251
     36 O5         19.0766   23.9060   16.2274 O.2         1 ROC      -0.3909
     37 C27        16.1037   22.7151   15.4448 C.3         1 ROC       0.0113
     38 C28        14.8346   21.9853   15.9707 C.3         1 ROC      -0.0261
     39 C29        14.1129   21.1266   14.8831 C.3         1 ROC      -0.0494
     40 C30        13.3434   21.9741   13.8343 C.3         1 ROC      -0.0528
     41 C31        12.3880   22.9906   14.5132 C.3         1 ROC      -0.0526
     42 C32        13.1128   23.8750   15.5658 C.3         1 ROC      -0.0451
     43 C33        13.8497   23.0031   16.6242 C.3         1 ROC       0.0024
     44 C34        14.5852   23.8242   17.7271 C.3         1 ROC      -0.0266
     45 N6         17.6900   25.2243   15.0859 N.am        1 ROC      -0.2771
     46 C35        18.6253   26.0390   14.3440 C.3         1 ROC       0.0448
     47 C36        17.7899   27.1300   13.6014 C.3         1 ROC      -0.0396
     48 C37        19.3975   25.1963   13.2810 C.3         1 ROC      -0.0396
     49 C38        19.6219   26.7340   15.3165 C.3         1 ROC      -0.0396
     50 H1         21.6923   27.2244   23.9876 H           1 ROC       0.0729
     51 H2         23.3623   26.8219   25.6780 H           1 ROC       0.0774
     52 H3         25.7833   26.2972   26.2677 H           1 ROC       0.0657
     53 H4         28.0521   25.9046   25.5248 H           1 ROC       0.0652
     54 H5         28.6000   25.9760   23.1608 H           1 ROC       0.0657
     55 H6         26.8644   26.3962   21.5211 H           1 ROC       0.0653
     56 H7         23.2139   26.1149   20.0865 H           1 ROC       0.1882
     57 H8         20.9220   27.5314   18.9447 H           1 ROC       0.0826
     58 H9         21.9537   27.2916   16.8604 H           1 ROC       0.0551
     59 H10        22.9394   25.9184   17.3344 H           1 ROC       0.0551
     60 H11        24.9882   29.0238   17.0264 H           1 ROC       0.1814
     61 H12        23.6465   28.6491   16.0813 H           1 ROC       0.1814
     62 H13        17.1714   25.2214   20.5284 H           1 ROC       0.0672
     63 H14        15.7535   23.6564   20.4760 H           1 ROC       0.2101
     64 H15        18.9185   23.4984   18.7453 H           1 ROC       0.0606
     65 H16        19.1847   26.2381   19.5718 H           1 ROC       0.1857
     66 H17        18.7796   22.5729   21.0383 H           1 ROC       0.0449
     67 H18        19.0632   24.1566   21.7349 H           1 ROC       0.0449
     68 H19        21.3671   24.7972   22.1359 H           1 ROC       0.0557
     69 H20        20.6070   21.4579   19.6685 H           1 ROC       0.0557
     70 H21        23.7381   24.3656   21.9727 H           1 ROC       0.0599
     71 H22        22.9831   21.0278   19.5429 H           1 ROC       0.0599
     72 H23        24.5518   22.4962   20.6613 H           1 ROC       0.0559
     73 H24        15.5970   25.1703   16.6594 H           1 ROC       0.2057
     74 H25        17.2699   25.9308   18.0013 H           1 ROC       0.0841
     75 H26        15.7843   25.8849   18.8733 H           1 ROC       0.0841
     76 H27        17.2003   22.7938   17.2804 H           1 ROC       0.1100
     77 H28        16.7978   21.9670   15.0435 H           1 ROC       0.0348
     78 H29        15.8277   23.3754   14.6207 H           1 ROC       0.0348
     79 H30        15.1641   21.2833   16.7445 H           1 ROC       0.0309
     80 H31        13.3973   20.4616   15.3800 H           1 ROC       0.0268
     81 H32        14.8399   20.4860   14.3703 H           1 ROC       0.0268
     82 H33        12.7632   21.3068   13.1903 H           1 ROC       0.0265
     83 H34        14.0524   22.5102   13.2012 H           1 ROC       0.0265
     84 H35        11.5734   22.4426   15.0011 H           1 ROC       0.0265
     85 H36        11.9412   23.6219   13.7385 H           1 ROC       0.0265
     86 H37        12.3704   24.5017   16.0628 H           1 ROC       0.0270
     87 H38        13.8131   24.5392   15.0532 H           1 ROC       0.0270
     88 H39        13.0749   22.4211   17.1352 H           1 ROC       0.0355
     89 H40        13.9028   24.6005   18.0910 H           1 ROC       0.0818
     90 H41        14.7414   23.1326   18.5652 H           1 ROC       0.0818
     91 H42        16.7504   25.4269   14.9378 H           1 ROC       0.1859
     92 H43        18.4426   27.8181   13.0559 H           1 ROC       0.0254
     93 H44        17.1963   27.7151   14.3085 H           1 ROC       0.0254
     94 H45        17.1040   26.6683   12.8836 H           1 ROC       0.0254
     95 H46        20.0542   25.8344   12.6850 H           1 ROC       0.0254
     96 H47        18.6954   24.6966   12.6104 H           1 ROC       0.0254
     97 H48        20.0164   24.4328   13.7554 H           1 ROC       0.0254
     98 H49        20.2544   27.4506   14.7845 H           1 ROC       0.0254
     99 H50        20.2644   25.9884   15.7820 H           1 ROC       0.0254
    100 H51        19.0865   27.2678   16.1046 H           1 ROC       0.0254
@<TRIPOS>BOND
     1     2     1   2
     2     2     4   1
     3    13     2  am
     4     4     3  ar
     5     3    12  ar
     6     4     5  ar
     7     5     6  ar
     8     6     7  ar
     9     7     8  ar
    10    12     7  ar
    11     8     9  ar
    12    10     9  ar
    13    11    10  ar
    14    12    11  ar
    15    14    13   1
    16    15    14   1
    17    14    17   1
    18    15    16   2
    19    24    15  am
    20    17    18   1
    21    18    19   2
    22    18    20  am
    23    21    22   1
    24    23    21   1
    25    21    33   1
    26    23    24   1
    27    23    25   1
    28    25    26   1
    29    26    27  ar
    30    26    28  ar
    31    27    29  ar
    32    28    30  ar
    33    29    31  ar
    34    30    31  ar
    35    33    32   1
    36    32    34   1
    37    32    44   1
    38    34    35   1
    39    34    37   1
    40    35    36   2
    41    35    45  am
    42    37    38   1
    43    38    39   1
    44    38    43   1
    45    39    40   1
    46    40    41   1
    47    41    42   1
    48    42    43   1
    49    43    44   1
    50    45    46   1
    51    46    47   1
    52    46    48   1
    53    46    49   1
    54     5    50   1
    55     6    51   1
    56     8    52   1
    57     9    53   1
    58    10    54   1
    59    11    55   1
    60    13    56   1
    61    14    57   1
    62    17    58   1
    63    17    59   1
    64    20    60   1
    65    20    61   1
    66    21    62   1
    67    22    63   1
    68    23    64   1
    69    24    65   1
    70    25    66   1
    71    25    67   1
    72    27    68   1
    73    28    69   1
    74    29    70   1
    75    30    71   1
    76    31    72   1
    77    32    73   1
    78    33    74   1
    79    33    75   1
    80    34    76   1
    81    37    77   1
    82    37    78   1
    83    38    79   1
    84    39    80   1
    85    39    81   1
    86    40    82   1
    87    40    83   1
    88    41    84   1
    89    41    85   1
    90    42    86   1
    91    42    87   1
    92    43    88   1
    93    44    89   1
    94    44    90   1
    95    45    91   1
    96    47    92   1
    97    47    93   1
    98    47    94   1
    99    48    95   1
   100    48    96   1
   101    48    97   1
   102    49    98   1
   103    49    99   1
   104    49   100   1
@<TRIPOS>SUBSTRUCTURE
     1  ROC      2

