@<TRIPOS>MOLECULE
3cyx_ligand_037
   100   104
SMALL
GAST_HUCK
****
This file was generated by PARSER (from files_GN.cpp)

@<TRIPOS>ATOM
      1 O1         18.5691   21.5946   20.5596 O.2         1 ROC      -0.3762
      2 C1         18.8856   22.7344   20.2333 C.2         1 ROC       0.2293
      3 N1         20.3415   24.5928   20.4644 N.ar        1 ROC      -0.2737
      4 C2         20.1194   23.2559   20.6078 C.ar        1 ROC       0.1219
      5 C3         21.1691   22.4704   21.1414 C.ar        1 ROC      -0.0136
      6 C4         22.3935   23.0765   21.4833 C.ar        1 ROC      -0.0314
      7 C5         22.5774   24.4669   21.3087 C.ar        1 ROC       0.0097
      8 C6         23.7863   25.1216   21.6320 C.ar        1 ROC      -0.0444
      9 C7         23.9052   26.5144   21.4593 C.ar        1 ROC      -0.0546
     10 C8         22.8180   27.2602   20.9665 C.ar        1 ROC      -0.0545
     11 C9R        21.6137   26.6178   20.6286 C.ar        1 ROC      -0.0370
     12 C10        21.4948   25.2231   20.7924 C.ar        1 ROC       0.0527
     13 N2         18.0732   23.4670   19.4821 N.am        1 ROC      -0.2600
     14 C11        16.7592   23.1313   18.9977 C.3         1 ROC       0.1473
     15 C12        16.7193   21.8863   18.2237 C.2         1 ROC       0.2045
     16 O2         17.7711   21.3228   17.9360 O.2         1 ROC      -0.3943
     17 C13        16.2669   24.3631   18.1751 C.3         1 ROC       0.0773
     18 C14        14.9314   24.2342   17.6225 C.2         1 ROC       0.1780
     19 O3         14.7596   23.7969   16.4935 O.2         1 ROC      -0.3970
     20 N3         13.8685   24.5978   18.3060 N.am        1 ROC      -0.3007
     21 C15        14.0582   20.2540   16.2039 C.3         1 ROC       0.1194
     22 O4         13.0051   19.3690   16.5692 O.3         1 ROC      -0.3840
     23 C16        15.3123   20.1235   17.1682 C.3         1 ROC       0.0823
     24 N4         15.5438   21.3582   17.8825 N.am        1 ROC      -0.2772
     25 C17        15.3578   18.9134   18.1746 C.3         1 ROC       0.0066
     26 C18        14.1248   18.5557   18.9408 C.ar        1 ROC      -0.0408
     27 C19        13.6255   17.2255   18.9240 C.ar        1 ROC      -0.0603
     28 C20        13.4122   19.5260   19.6828 C.ar        1 ROC      -0.0603
     29 C21        12.4461   16.8859   19.6072 C.ar        1 ROC      -0.0686
     30 C22        12.2227   19.1896   20.3578 C.ar        1 ROC      -0.0686
     31 C23        11.7346   17.8724   20.3144 C.ar        1 ROC      -0.0687
     32 N5         13.4396   19.1706   13.8932 N.4         1 ROC       0.2562
     33 C24        14.3379   20.1311   14.6564 C.3         1 ROC      -0.0008
     34 C25        12.2566   19.8007   13.1895 C.3         1 ROC       0.0688
     35 C26        11.4427   20.6883   14.0259 C.2         1 ROC       0.2251
     36 O5         11.4580   21.8867   13.7782 O.2         1 ROC      -0.3909
     37 C27        11.3320   18.7004   12.5720 C.3         1 ROC       0.0113
     38 C28        12.0989   17.7733   11.5886 C.3         1 ROC      -0.0261
     39 C29        11.2067   16.6485   10.9758 C.3         1 ROC      -0.0494
     40 C30        10.9002   15.4886   11.9622 C.3         1 ROC      -0.0528
     41 C31        12.2019   14.9044   12.5634 C.3         1 ROC      -0.0526
     42 C32        13.0722   16.0034   13.2243 C.3         1 ROC      -0.0451
     43 C33        13.3856   17.1834   12.2501 C.3         1 ROC       0.0024
     44 C34        14.2215   18.3009   12.9445 C.3         1 ROC      -0.0266
     45 N6         10.6619   20.1655   14.9667 N.am        1 ROC      -0.2771
     46 C35         9.5998   20.7328   15.7643 C.3         1 ROC       0.0448
     47 C36         9.9759   20.4944   17.2571 C.3         1 ROC      -0.0396
     48 C37         8.3324   19.9002   15.3998 C.3         1 ROC      -0.0396
     49 C38         9.2865   22.2459   15.5569 C.3         1 ROC      -0.0396
     50 H1         21.0607   21.4613   21.2712 H           1 ROC       0.0729
     51 H2         23.1462   22.4972   21.8663 H           1 ROC       0.0774
     52 H3         24.5824   24.5927   21.9982 H           1 ROC       0.0657
     53 H4         24.7793   26.9867   21.6972 H           1 ROC       0.0652
     54 H5         22.9042   28.2737   20.8473 H           1 ROC       0.0657
     55 H6         20.8300   27.1644   20.2661 H           1 ROC       0.0653
     56 H7         18.4097   24.3408   19.2287 H           1 ROC       0.1882
     57 H8         16.1172   23.0178   19.8761 H           1 ROC       0.0826
     58 H9         16.9763   24.5538   17.3657 H           1 ROC       0.0551
     59 H10        16.2759   25.2563   18.8109 H           1 ROC       0.0551
     60 H11        12.9878   24.5171   17.9038 H           1 ROC       0.1814
     61 H12        13.9578   24.9968   19.1889 H           1 ROC       0.1814
     62 H13        13.6139   21.2435   16.3526 H           1 ROC       0.0672
     63 H14        13.3978   18.4766   16.5358 H           1 ROC       0.2101
     64 H15        16.1893   19.9697   16.5347 H           1 ROC       0.0606
     65 H16        14.7529   21.8265   18.1954 H           1 ROC       0.1857
     66 H17        16.1466   19.0998   18.9088 H           1 ROC       0.0449
     67 H18        15.6914   18.0435   17.6062 H           1 ROC       0.0449
     68 H19        14.1157   16.4893   18.4089 H           1 ROC       0.0557
     69 H20        13.7458   20.4889   19.7365 H           1 ROC       0.0557
     70 H21        12.0910   15.9268   19.5765 H           1 ROC       0.0599
     71 H22        11.7078   19.9037   20.8727 H           1 ROC       0.0599
     72 H23        10.8730   17.6268   20.8060 H           1 ROC       0.0559
     73 H24        13.0511   18.5264   14.5812 H           1 ROC       0.2057
     74 H25        15.3801   19.8459   14.5202 H           1 ROC       0.0841
     75 H26        14.2769   21.1282   14.2073 H           1 ROC       0.0841
     76 H27        12.6551   20.3914   12.3516 H           1 ROC       0.1100
     77 H28        10.5058   19.1745   12.0343 H           1 ROC       0.0348
     78 H29        10.9006   18.0919   13.3680 H           1 ROC       0.0348
     79 H30        12.4123   18.4056   10.7526 H           1 ROC       0.0309
     80 H31        11.7232   16.2253   10.1092 H           1 ROC       0.0268
     81 H32        10.2644   17.0692   10.6162 H           1 ROC       0.0268
     82 H33        10.3628   14.6959   11.4331 H           1 ROC       0.0265
     83 H34        10.2521   15.8443   12.7689 H           1 ROC       0.0265
     84 H35        12.7754   14.4164   11.7702 H           1 ROC       0.0265
     85 H36        11.9488   14.1455   13.3092 H           1 ROC       0.0265
     86 H37        14.0111   15.5436   13.5399 H           1 ROC       0.0270
     87 H38        12.5637   16.3749   14.1192 H           1 ROC       0.0270
     88 H39        14.0088   16.7712   11.4478 H           1 ROC       0.0355
     89 H40        15.0355   17.8081   13.4843 H           1 ROC       0.0818
     90 H41        14.6804   18.9283   12.1731 H           1 ROC       0.0818
     91 H42        10.7702   19.2084   15.0866 H           1 ROC       0.1859
     92 H43         9.2036   20.8915   17.9159 H           1 ROC       0.0254
     93 H44        10.9154   20.9950   17.4996 H           1 ROC       0.0254
     94 H45        10.0921   19.4290   17.4695 H           1 ROC       0.0254
     95 H46         7.4768   20.2059   16.0025 H           1 ROC       0.0254
     96 H47         8.5022   18.8335   15.5653 H           1 ROC       0.0254
     97 H48         8.0727   20.0387   14.3467 H           1 ROC       0.0254
     98 H49         8.4881   22.5769   16.2269 H           1 ROC       0.0254
     99 H50         8.9643   22.4419   14.5331 H           1 ROC       0.0254
    100 H51        10.1717   22.8460   15.7668 H           1 ROC       0.0254
@<TRIPOS>BOND
     1     2     1   2
     2     2     4   1
     3    13     2  am
     4     4     3  ar
     5     3    12  ar
     6     4     5  ar
     7     5     6  ar
     8     6     7  ar
     9     7     8  ar
    10    12     7  ar
    11     8     9  ar
    12    10     9  ar
    13    11    10  ar
    14    12    11  ar
    15    14    13   1
    16    15    14   1
    17    14    17   1
    18    15    16   2
    19    24    15  am
    20    17    18   1
    21    18    19   2
    22    18    20  am
    23    21    22   1
    24    23    21   1
    25    21    33   1
    26    23    24   1
    27    23    25   1
    28    25    26   1
    29    26    27  ar
    30    26    28  ar
    31    27    29  ar
    32    28    30  ar
    33    29    31  ar
    34    30    31  ar
    35    33    32   1
    36    32    34   1
    37    32    44   1
    38    34    35   1
    39    34    37   1
    40    35    36   2
    41    35    45  am
    42    37    38   1
    43    38    39   1
    44    38    43   1
    45    39    40   1
    46    40    41   1
    47    41    42   1
    48    42    43   1
    49    43    44   1
    50    45    46   1
    51    46    47   1
    52    46    48   1
    53    46    49   1
    54     5    50   1
    55     6    51   1
    56     8    52   1
    57     9    53   1
    58    10    54   1
    59    11    55   1
    60    13    56   1
    61    14    57   1
    62    17    58   1
    63    17    59   1
    64    20    60   1
    65    20    61   1
    66    21    62   1
    67    22    63   1
    68    23    64   1
    69    24    65   1
    70    25    66   1
    71    25    67   1
    72    27    68   1
    73    28    69   1
    74    29    70   1
    75    30    71   1
    76    31    72   1
    77    32    73   1
    78    33    74   1
    79    33    75   1
    80    34    76   1
    81    37    77   1
    82    37    78   1
    83    38    79   1
    84    39    80   1
    85    39    81   1
    86    40    82   1
    87    40    83   1
    88    41    84   1
    89    41    85   1
    90    42    86   1
    91    42    87   1
    92    43    88   1
    93    44    89   1
    94    44    90   1
    95    45    91   1
    96    47    92   1
    97    47    93   1
    98    47    94   1
    99    48    95   1
   100    48    96   1
   101    48    97   1
   102    49    98   1
   103    49    99   1
   104    49   100   1
@<TRIPOS>SUBSTRUCTURE
     1  ROC      2

