@<TRIPOS>MOLECULE
3cyx_ligand_060
   100   104
SMALL
GAST_HUCK
****
This file was generated by PARSER (from files_GN.cpp)

@<TRIPOS>ATOM
      1 O1         20.2542   21.5287   20.7800 O.2         1 ROC      -0.3762
      2 C1         20.4615   22.4431   19.9847 C.2         1 ROC       0.2293
      3 N1         22.0215   23.9412   18.9948 N.ar        1 ROC      -0.2737
      4 C2         21.7596   22.7421   19.5908 C.ar        1 ROC       0.1219
      5 C3         22.8480   21.8589   19.7904 C.ar        1 ROC      -0.0136
      6 C4         24.1401   22.2157   19.3526 C.ar        1 ROC      -0.0314
      7 C5         24.3594   23.4613   18.7336 C.ar        1 ROC       0.0097
      8 C6         25.6292   23.8617   18.2699 C.ar        1 ROC      -0.0444
      9 C7         25.7994   25.1196   17.6598 C.ar        1 ROC      -0.0546
     10 C8         24.7001   25.9912   17.5178 C.ar        1 ROC      -0.0545
     11 C9R        23.4290   25.6003   17.9725 C.ar        1 ROC      -0.0370
     12 C10        23.2505   24.3404   18.5741 C.ar        1 ROC       0.0527
     13 N2         19.4397   23.1361   19.4932 N.am        1 ROC      -0.2600
     14 C11        18.0672   23.1108   19.9297 C.3         1 ROC       0.1473
     15 C12        17.1905   22.3379   19.0489 C.2         1 ROC       0.2045
     16 O2         17.6660   21.5112   18.2711 O.2         1 ROC      -0.3943
     17 C13        17.6062   24.5937   20.1292 C.3         1 ROC       0.0773
     18 C14        17.0619   25.2334   18.9427 C.2         1 ROC       0.1780
     19 O3         17.7589   25.4314   17.9567 O.2         1 ROC      -0.3970
     20 N3         15.8053   25.6270   18.9074 N.am        1 ROC      -0.3007
     21 C15        14.6633   22.9195   17.0594 C.3         1 ROC       0.1194
     22 O4         14.4461   24.2459   17.5567 O.3         1 ROC      -0.3840
     23 C16        14.8597   21.9660   18.2846 C.3         1 ROC       0.0823
     24 N4         15.8792   22.5241   19.1315 N.am        1 ROC      -0.2772
     25 C17        13.5608   21.7707   19.1275 C.3         1 ROC       0.0066
     26 C18        13.6354   20.7636   20.2286 C.ar        1 ROC      -0.0408
     27 C19        14.5869   20.8875   21.2741 C.ar        1 ROC      -0.0603
     28 C20        12.6951   19.7063   20.3109 C.ar        1 ROC      -0.0603
     29 C21        14.5944   19.9911   22.3589 C.ar        1 ROC      -0.0686
     30 C22        12.6992   18.8130   21.3954 C.ar        1 ROC      -0.0686
     31 C23        13.6533   18.9507   22.4211 C.ar        1 ROC      -0.0687
     32 N5         13.5955   21.4882   15.0878 N.4         1 ROC       0.2562
     33 C24        13.5153   22.6410   16.0427 C.3         1 ROC      -0.0008
     34 C25        14.8707   21.3227   14.2847 C.3         1 ROC       0.0688
     35 C26        15.3681   22.5770   13.7081 C.2         1 ROC       0.2251
     36 O5         14.6777   23.1289   12.8603 O.2         1 ROC      -0.3909
     37 C27        14.6292   20.2819   13.1399 C.3         1 ROC       0.0113
     38 C28        14.0322   18.9354   13.6606 C.3         1 ROC      -0.0261
     39 C29        13.6997   17.9140   12.5261 C.3         1 ROC      -0.0494
     40 C30        12.4032   18.2530   11.7446 C.3         1 ROC      -0.0528
     41 C31        11.1928   18.4481   12.6934 C.3         1 ROC      -0.0526
     42 C32        11.4948   19.5038   13.7873 C.3         1 ROC      -0.0451
     43 C33        12.7884   19.1464   14.5819 C.3         1 ROC       0.0024
     44 C34        13.1152   20.1939   15.6795 C.3         1 ROC      -0.0266
     45 N6         16.5029   23.1352   14.1400 N.am        1 ROC      -0.2771
     46 C35        17.0415   24.4468   13.8456 C.3         1 ROC       0.0448
     47 C36        16.3274   25.5340   14.7065 C.3         1 ROC      -0.0396
     48 C37        16.9359   24.8111   12.3286 C.3         1 ROC      -0.0396
     49 C38        18.5491   24.4257   14.2512 C.3         1 ROC      -0.0396
     50 H1         22.7040   20.9458   20.2188 H           1 ROC       0.0729
     51 H2         24.9124   21.5589   19.4886 H           1 ROC       0.0774
     52 H3         26.4394   23.2422   18.3717 H           1 ROC       0.0657
     53 H4         26.7204   25.4055   17.3296 H           1 ROC       0.0652
     54 H5         24.8300   26.9034   17.0775 H           1 ROC       0.0657
     55 H6         22.6316   26.2350   17.8579 H           1 ROC       0.0653
     56 H7         19.6551   23.7670   18.7883 H           1 ROC       0.1882
     57 H8         18.0055   22.6299   20.9124 H           1 ROC       0.0826
     58 H9         18.4462   25.1960   20.4851 H           1 ROC       0.0551
     59 H10        16.8653   24.6153   20.9342 H           1 ROC       0.0551
     60 H11        15.4419   26.0401   18.1092 H           1 ROC       0.1814
     61 H12        15.2287   25.4743   19.6781 H           1 ROC       0.1814
     62 H13        15.6078   22.9395   16.5049 H           1 ROC       0.0672
     63 H14        14.4692   24.8308   16.7633 H           1 ROC       0.2101
     64 H15        15.1886   20.9849   17.9390 H           1 ROC       0.0606
     65 H16        15.5806   23.1897   19.7788 H           1 ROC       0.1857
     66 H17        12.7497   21.4910   18.4518 H           1 ROC       0.0449
     67 H18        13.2742   22.7323   19.5605 H           1 ROC       0.0449
     68 H19        15.2636   21.6564   21.2801 H           1 ROC       0.0557
     69 H20        11.9779   19.5945   19.5885 H           1 ROC       0.0557
     70 H21        15.2783   20.1072   23.1120 H           1 ROC       0.0599
     71 H22        12.0045   18.0652   21.4449 H           1 ROC       0.0599
     72 H23        13.6478   18.3104   23.2110 H           1 ROC       0.0559
     73 H24        12.8837   21.7169   14.3843 H           1 ROC       0.2057
     74 H25        13.4306   23.5332   15.4226 H           1 ROC       0.0841
     75 H26        12.5680   22.6051   16.5817 H           1 ROC       0.0841
     76 H27        15.6394   20.9116   14.9480 H           1 ROC       0.1100
     77 H28        15.5833   20.0755   12.6426 H           1 ROC       0.0348
     78 H29        13.9520   20.7121   12.3979 H           1 ROC       0.0348
     79 H30        14.8133   18.4742   14.2710 H           1 ROC       0.0309
     80 H31        13.5762   16.9222   12.9778 H           1 ROC       0.0268
     81 H32        14.5365   17.8477   11.8305 H           1 ROC       0.0268
     82 H33        12.1802   17.4404   11.0456 H           1 ROC       0.0265
     83 H34        12.5484   19.1642   11.1609 H           1 ROC       0.0265
     84 H35        10.9446   17.4917   13.1678 H           1 ROC       0.0265
     85 H36        10.3220   18.7671   12.1097 H           1 ROC       0.0265
     86 H37        10.6420   19.5453   14.4703 H           1 ROC       0.0270
     87 H38        11.5923   20.4846   13.3146 H           1 ROC       0.0270
     88 H39        12.5879   18.2026   15.1001 H           1 ROC       0.0355
     89 H40        12.2132   20.3483   16.2786 H           1 ROC       0.0818
     90 H41        13.8743   19.7698   16.3410 H           1 ROC       0.0818
     91 H42        17.0049   22.6127   14.7854 H           1 ROC       0.1859
     92 H43        16.7392   26.5259   14.5046 H           1 ROC       0.0254
     93 H44        16.4505   25.3241   15.7723 H           1 ROC       0.0254
     94 H45        15.2590   25.5622   14.4900 H           1 ROC       0.0254
     95 H46        17.4677   25.7400   12.1130 H           1 ROC       0.0254
     96 H47        15.9003   24.9500   12.0189 H           1 ROC       0.0254
     97 H48        17.3684   24.0227   11.7136 H           1 ROC       0.0254
     98 H49        19.0040   25.4105   14.1115 H           1 ROC       0.0254
     99 H50        19.1005   23.7079   13.6417 H           1 ROC       0.0254
    100 H51        18.6634   24.1413   15.3008 H           1 ROC       0.0254
@<TRIPOS>BOND
     1     2     1   2
     2     2     4   1
     3    13     2  am
     4     4     3  ar
     5     3    12  ar
     6     4     5  ar
     7     5     6  ar
     8     6     7  ar
     9     7     8  ar
    10    12     7  ar
    11     8     9  ar
    12    10     9  ar
    13    11    10  ar
    14    12    11  ar
    15    14    13   1
    16    15    14   1
    17    14    17   1
    18    15    16   2
    19    24    15  am
    20    17    18   1
    21    18    19   2
    22    18    20  am
    23    21    22   1
    24    23    21   1
    25    21    33   1
    26    23    24   1
    27    23    25   1
    28    25    26   1
    29    26    27  ar
    30    26    28  ar
    31    27    29  ar
    32    28    30  ar
    33    29    31  ar
    34    30    31  ar
    35    33    32   1
    36    32    34   1
    37    32    44   1
    38    34    35   1
    39    34    37   1
    40    35    36   2
    41    35    45  am
    42    37    38   1
    43    38    39   1
    44    38    43   1
    45    39    40   1
    46    40    41   1
    47    41    42   1
    48    42    43   1
    49    43    44   1
    50    45    46   1
    51    46    47   1
    52    46    48   1
    53    46    49   1
    54     5    50   1
    55     6    51   1
    56     8    52   1
    57     9    53   1
    58    10    54   1
    59    11    55   1
    60    13    56   1
    61    14    57   1
    62    17    58   1
    63    17    59   1
    64    20    60   1
    65    20    61   1
    66    21    62   1
    67    22    63   1
    68    23    64   1
    69    24    65   1
    70    25    66   1
    71    25    67   1
    72    27    68   1
    73    28    69   1
    74    29    70   1
    75    30    71   1
    76    31    72   1
    77    32    73   1
    78    33    74   1
    79    33    75   1
    80    34    76   1
    81    37    77   1
    82    37    78   1
    83    38    79   1
    84    39    80   1
    85    39    81   1
    86    40    82   1
    87    40    83   1
    88    41    84   1
    89    41    85   1
    90    42    86   1
    91    42    87   1
    92    43    88   1
    93    44    89   1
    94    44    90   1
    95    45    91   1
    96    47    92   1
    97    47    93   1
    98    47    94   1
    99    48    95   1
   100    48    96   1
   101    48    97   1
   102    49    98   1
   103    49    99   1
   104    49   100   1
@<TRIPOS>SUBSTRUCTURE
     1  ROC      2

