@<TRIPOS>MOLECULE
3cyx_ligand_053
   100   104
SMALL
GAST_HUCK
****
This file was generated by PARSER (from files_GN.cpp)

@<TRIPOS>ATOM
      1 O1         14.4925   20.5031   13.0531 O.2         1 ROC      -0.3762
      2 C1         13.5229   20.6611   13.7871 C.2         1 ROC       0.2293
      3 N1         11.2254   20.2744   14.2787 N.ar        1 ROC      -0.2737
      4 C2         12.3062   20.0533   13.4789 C.ar        1 ROC       0.1219
      5 C3         12.1491   19.1644   12.3873 C.ar        1 ROC      -0.0136
      6 C4         10.9116   18.5308   12.1726 C.ar        1 ROC      -0.0314
      7 C5          9.8229   18.7813   13.0340 C.ar        1 ROC       0.0097
      8 C6          8.5724   18.1440   12.8776 C.ar        1 ROC      -0.0444
      9 C7          7.5245   18.4132   13.7769 C.ar        1 ROC      -0.0546
     10 C8          7.7162   19.3246   14.8324 C.ar        1 ROC      -0.0545
     11 C9R         8.9561   19.9695   14.9954 C.ar        1 ROC      -0.0370
     12 C10        10.0123   19.6933   14.1059 C.ar        1 ROC       0.0527
     13 N2         13.6363   21.3836   14.8965 N.am        1 ROC      -0.2600
     14 C11        14.8197   21.9918   15.4447 C.3         1 ROC       0.1473
     15 C12        14.9999   21.6341   16.8530 C.2         1 ROC       0.2045
     16 O2         14.1927   20.9385   17.4587 O.2         1 ROC      -0.3943
     17 C13        14.7540   23.5497   15.2069 C.3         1 ROC       0.0773
     18 C14        15.7108   24.0907   14.2533 C.2         1 ROC       0.1780
     19 O3         16.2165   23.4133   13.3698 O.2         1 ROC      -0.3970
     20 N3         15.9735   25.3772   14.2483 N.am        1 ROC      -0.3007
     21 C15        17.4768   23.0892   19.1935 C.3         1 ROC       0.1194
     22 O4         16.7755   24.3388   19.1740 O.3         1 ROC      -0.3840
     23 C16        16.4912   21.9268   18.8239 C.3         1 ROC       0.0823
     24 N4         16.0889   22.0865   17.4578 N.am        1 ROC      -0.2772
     25 C17        17.0867   20.4974   19.0883 C.3         1 ROC       0.0066
     26 C18        16.1352   19.4968   19.6559 C.ar        1 ROC      -0.0408
     27 C19        15.5460   19.7258   20.9236 C.ar        1 ROC      -0.0603
     28 C20        15.8307   18.2828   18.9884 C.ar        1 ROC      -0.0603
     29 C21        14.6632   18.7915   21.4959 C.ar        1 ROC      -0.0686
     30 C22        14.9580   17.3380   19.5662 C.ar        1 ROC      -0.0686
     31 C23        14.3703   17.5945   20.8176 C.ar        1 ROC      -0.0687
     32 N5         19.8982   24.1047   18.7385 N.4         1 ROC       0.2562
     33 C24        18.7800   23.1812   18.3164 C.3         1 ROC      -0.0008
     34 C25        19.7707   25.5601   18.3531 C.3         1 ROC       0.0688
     35 C26        19.5662   25.8314   16.9190 C.2         1 ROC       0.2251
     36 O5         18.5004   26.3269   16.5660 O.2         1 ROC      -0.3909
     37 C27        21.0226   26.3860   18.8220 C.3         1 ROC       0.0113
     38 C28        21.3984   26.1697   20.3152 C.3         1 ROC      -0.0261
     39 C29        22.6984   26.9263   20.7405 C.3         1 ROC      -0.0494
     40 C30        24.0134   26.2609   20.2481 C.3         1 ROC      -0.0528
     41 C31        24.0680   24.7517   20.5952 C.3         1 ROC      -0.0526
     42 C32        22.8114   23.9978   20.0929 C.3         1 ROC      -0.0451
     43 C33        21.5111   24.6508   20.6555 C.3         1 ROC       0.0024
     44 C34        20.2246   23.9194   20.1948 C.3         1 ROC      -0.0266
     45 N6         20.5643   25.7000   16.0416 N.am        1 ROC      -0.2771
     46 C35        20.6953   26.2457   14.7065 C.3         1 ROC       0.0448
     47 C36        22.1680   25.9682   14.2569 C.3         1 ROC      -0.0396
     48 C37        20.4662   27.7936   14.6865 C.3         1 ROC      -0.0396
     49 C38        19.7184   25.5421   13.7181 C.3         1 ROC      -0.0396
     50 H1         12.9263   18.9580   11.7578 H           1 ROC       0.0729
     51 H2         10.8166   17.8788   11.3905 H           1 ROC       0.0774
     52 H3          8.4203   17.4725   12.1199 H           1 ROC       0.0657
     53 H4          6.6259   17.9384   13.6723 H           1 ROC       0.0652
     54 H5          6.9558   19.5095   15.4915 H           1 ROC       0.0657
     55 H6          9.0886   20.6230   15.7697 H           1 ROC       0.0653
     56 H7         12.8258   21.5117   15.4132 H           1 ROC       0.1882
     57 H8         15.7003   21.5749   14.9458 H           1 ROC       0.0826
     58 H9         14.8939   24.0786   16.1578 H           1 ROC       0.0551
     59 H10        13.7582   23.8464   14.8563 H           1 ROC       0.0551
     60 H11        16.5566   25.7512   13.5717 H           1 ROC       0.1814
     61 H12        15.5747   25.9549   14.9154 H           1 ROC       0.1814
     62 H13        17.7561   22.9224   20.2358 H           1 ROC       0.0672
     63 H14        16.0802   24.2773   19.8719 H           1 ROC       0.2101
     64 H15        15.6070   22.0716   19.4539 H           1 ROC       0.0606
     65 H16        16.6738   22.6236   16.9036 H           1 ROC       0.1857
     66 H17        17.9180   20.5595   19.7973 H           1 ROC       0.0449
     67 H18        17.5242   20.1172   18.1580 H           1 ROC       0.0449
     68 H19        15.7522   20.5836   21.4384 H           1 ROC       0.0557
     69 H20        16.2480   18.0684   18.0813 H           1 ROC       0.0557
     70 H21        14.2389   18.9795   22.4073 H           1 ROC       0.0599
     71 H22        14.7472   16.4611   19.0778 H           1 ROC       0.0599
     72 H23        13.7271   16.9167   21.2343 H           1 ROC       0.0559
     73 H24        20.7176   23.7749   18.2271 H           1 ROC       0.2057
     74 H25        18.5007   23.3973   17.2866 H           1 ROC       0.0841
     75 H26        19.2200   22.1840   18.2941 H           1 ROC       0.0841
     76 H27        18.9149   25.9593   18.9014 H           1 ROC       0.1100
     77 H28        20.8256   27.4505   18.6631 H           1 ROC       0.0348
     78 H29        21.8915   26.1225   18.2153 H           1 ROC       0.0348
     79 H30        20.5782   26.5887   20.9092 H           1 ROC       0.0309
     80 H31        22.7283   26.9690   21.8339 H           1 ROC       0.0268
     81 H32        22.6643   27.9590   20.3814 H           1 ROC       0.0268
     82 H33        24.8634   26.7630   20.7175 H           1 ROC       0.0265
     83 H34        24.1130   26.3874   19.1687 H           1 ROC       0.0265
     84 H35        24.1510   24.6325   21.6799 H           1 ROC       0.0265
     85 H36        24.9599   24.3063   20.1447 H           1 ROC       0.0265
     86 H37        22.8717   22.9553   20.4212 H           1 ROC       0.0270
     87 H38        22.7999   23.9991   19.0015 H           1 ROC       0.0270
     88 H39        21.5560   24.5540   21.7469 H           1 ROC       0.0355
     89 H40        20.3391   22.8568   20.4238 H           1 ROC       0.0818
     90 H41        19.4037   24.3029   20.8080 H           1 ROC       0.0818
     91 H42        21.3596   25.2544   16.3775 H           1 ROC       0.1859
     92 H43        22.3822   26.4475   13.2977 H           1 ROC       0.0254
     93 H44        22.3521   24.8951   14.1470 H           1 ROC       0.0254
     94 H45        22.8752   26.3614   14.9951 H           1 ROC       0.0254
     95 H46        20.6805   28.2070   13.6977 H           1 ROC       0.0254
     96 H47        21.1188   28.2870   15.4100 H           1 ROC       0.0254
     97 H48        19.4328   28.0464   14.9331 H           1 ROC       0.0254
     98 H49        19.9194   25.8486   12.6877 H           1 ROC       0.0254
     99 H50        18.6874   25.8060   13.9515 H           1 ROC       0.0254
    100 H51        19.8184   24.4551   13.7832 H           1 ROC       0.0254
@<TRIPOS>BOND
     1     2     1   2
     2     2     4   1
     3    13     2  am
     4     4     3  ar
     5     3    12  ar
     6     4     5  ar
     7     5     6  ar
     8     6     7  ar
     9     7     8  ar
    10    12     7  ar
    11     8     9  ar
    12    10     9  ar
    13    11    10  ar
    14    12    11  ar
    15    14    13   1
    16    15    14   1
    17    14    17   1
    18    15    16   2
    19    24    15  am
    20    17    18   1
    21    18    19   2
    22    18    20  am
    23    21    22   1
    24    23    21   1
    25    21    33   1
    26    23    24   1
    27    23    25   1
    28    25    26   1
    29    26    27  ar
    30    26    28  ar
    31    27    29  ar
    32    28    30  ar
    33    29    31  ar
    34    30    31  ar
    35    33    32   1
    36    32    34   1
    37    32    44   1
    38    34    35   1
    39    34    37   1
    40    35    36   2
    41    35    45  am
    42    37    38   1
    43    38    39   1
    44    38    43   1
    45    39    40   1
    46    40    41   1
    47    41    42   1
    48    42    43   1
    49    43    44   1
    50    45    46   1
    51    46    47   1
    52    46    48   1
    53    46    49   1
    54     5    50   1
    55     6    51   1
    56     8    52   1
    57     9    53   1
    58    10    54   1
    59    11    55   1
    60    13    56   1
    61    14    57   1
    62    17    58   1
    63    17    59   1
    64    20    60   1
    65    20    61   1
    66    21    62   1
    67    22    63   1
    68    23    64   1
    69    24    65   1
    70    25    66   1
    71    25    67   1
    72    27    68   1
    73    28    69   1
    74    29    70   1
    75    30    71   1
    76    31    72   1
    77    32    73   1
    78    33    74   1
    79    33    75   1
    80    34    76   1
    81    37    77   1
    82    37    78   1
    83    38    79   1
    84    39    80   1
    85    39    81   1
    86    40    82   1
    87    40    83   1
    88    41    84   1
    89    41    85   1
    90    42    86   1
    91    42    87   1
    92    43    88   1
    93    44    89   1
    94    44    90   1
    95    45    91   1
    96    47    92   1
    97    47    93   1
    98    47    94   1
    99    48    95   1
   100    48    96   1
   101    48    97   1
   102    49    98   1
   103    49    99   1
   104    49   100   1
@<TRIPOS>SUBSTRUCTURE
     1  ROC      2

