@<TRIPOS>MOLECULE
3cyx_ligand_073
   100   104
SMALL
GAST_HUCK
****
This file was generated by PARSER (from files_GN.cpp)

@<TRIPOS>ATOM
      1 O1         21.9141   23.5691   19.1954 O.2         1 ROC      -0.3762
      2 C1         21.7784   24.6343   18.5953 C.2         1 ROC       0.2293
      3 N1         22.8424   26.5514   17.6669 N.ar        1 ROC      -0.2737
      4 C2         22.7768   25.6048   18.6497 C.ar        1 ROC       0.1219
      5 C3         23.7644   25.6338   19.6682 C.ar        1 ROC      -0.0136
      6 C4         24.7697   26.6196   19.6404 C.ar        1 ROC      -0.0314
      7 C5         24.8155   27.5614   18.5929 C.ar        1 ROC       0.0097
      8 C6         25.8289   28.5403   18.5053 C.ar        1 ROC      -0.0444
      9 C7         25.8424   29.4502   17.4304 C.ar        1 ROC      -0.0546
     10 C8         24.8347   29.3917   16.4465 C.ar        1 ROC      -0.0545
     11 C9R        23.8177   28.4262   16.5319 C.ar        1 ROC      -0.0370
     12 C10        23.8063   27.5058   17.5970 C.ar        1 ROC       0.0527
     13 N2         20.6858   24.8503   17.8612 N.am        1 ROC      -0.2600
     14 C11        19.6393   23.9298   17.4803 C.3         1 ROC       0.1473
     15 C12        18.5741   24.6377   16.7708 C.2         1 ROC       0.2045
     16 O2         18.3092   25.7984   17.0666 O.2         1 ROC      -0.3943
     17 C13        19.0371   23.0326   18.6141 C.3         1 ROC       0.0773
     18 C14        18.3937   23.7513   19.6990 C.2         1 ROC       0.1780
     19 O3         17.5056   24.5607   19.4631 O.2         1 ROC      -0.3970
     20 N3         18.6865   23.4968   20.9562 N.am        1 ROC      -0.3007
     21 C15        15.5792   23.5014   15.0622 C.3         1 ROC       0.1194
     22 O4         14.8281   23.7163   16.2608 O.3         1 ROC      -0.3840
     23 C16        16.7951   24.4963   15.0445 C.3         1 ROC       0.0823
     24 N4         17.8717   23.9886   15.8507 N.am        1 ROC      -0.2772
     25 C17        17.3372   24.8102   13.6134 C.3         1 ROC       0.0066
     26 C18        18.6119   25.5932   13.6364 C.ar        1 ROC      -0.0408
     27 C19        18.5881   27.0061   13.7122 C.ar        1 ROC      -0.0603
     28 C20        19.8658   24.9370   13.6662 C.ar        1 ROC      -0.0603
     29 C21        19.7860   27.7397   13.8096 C.ar        1 ROC      -0.0686
     30 C22        21.0610   25.6705   13.7757 C.ar        1 ROC      -0.0686
     31 C23        21.0216   27.0726   13.8480 C.ar        1 ROC      -0.0687
     32 N5         14.8724   20.9908   14.6157 N.4         1 ROC       0.2562
     33 C24        15.9460   21.9792   14.9946 C.3         1 ROC      -0.0008
     34 C25        13.6123   21.0067   15.4467 C.3         1 ROC       0.0688
     35 C26        13.8678   20.8655   16.8853 C.2         1 ROC       0.2251
     36 O5         13.5849   21.8109   17.6111 O.2         1 ROC      -0.3909
     37 C27        12.6189   19.8739   15.0244 C.3         1 ROC       0.0113
     38 C28        12.3656   19.8085   13.4884 C.3         1 ROC      -0.0261
     39 C29        11.4707   18.5958   13.0778 C.3         1 ROC      -0.0494
     40 C30        12.2081   17.2301   13.1425 C.3         1 ROC      -0.0528
     41 C31        13.5443   17.2541   12.3602 C.3         1 ROC      -0.0526
     42 C32        14.4504   18.4382   12.7845 C.3         1 ROC      -0.0451
     43 C33        13.7060   19.8083   12.6885 C.3         1 ROC       0.0024
     44 C34        14.5944   21.0015   13.1401 C.3         1 ROC      -0.0266
     45 N6         14.3595   19.7199   17.3555 N.am        1 ROC      -0.2771
     46 C35        14.6057   19.2949   18.7159 C.3         1 ROC       0.0448
     47 C36        14.6956   20.4485   19.7684 C.3         1 ROC      -0.0396
     48 C37        15.9759   18.5481   18.6926 C.3         1 ROC      -0.0396
     49 C38        13.4860   18.2888   19.1094 C.3         1 ROC      -0.0396
     50 H1         23.7556   24.9506   20.4307 H           1 ROC       0.0729
     51 H2         25.4712   26.6384   20.3802 H           1 ROC       0.0774
     52 H3         26.5671   28.5988   19.2124 H           1 ROC       0.0657
     53 H4         26.5804   30.1562   17.3645 H           1 ROC       0.0652
     54 H5         24.8432   30.0591   15.6728 H           1 ROC       0.0657
     55 H6         23.0906   28.3898   15.8163 H           1 ROC       0.0653
     56 H7         20.6273   25.7349   17.4531 H           1 ROC       0.1882
     57 H8         20.1126   23.2436   16.7658 H           1 ROC       0.0826
     58 H9         19.8388   22.4036   19.0160 H           1 ROC       0.0551
     59 H10        18.3038   22.3362   18.1913 H           1 ROC       0.0551
     60 H11        18.2076   23.9491   21.6707 H           1 ROC       0.1814
     61 H12        19.3743   22.8417   21.1726 H           1 ROC       0.1814
     62 H13        14.9192   23.7566   14.2285 H           1 ROC       0.0672
     63 H14        14.5645   24.6613   16.2326 H           1 ROC       0.2101
     64 H15        16.4312   25.4501   15.4445 H           1 ROC       0.0606
     65 H16        18.1602   23.0821   15.6597 H           1 ROC       0.1857
     66 H17        16.5826   25.3819   13.0643 H           1 ROC       0.0449
     67 H18        17.4734   23.8741   13.0668 H           1 ROC       0.0449
     68 H19        17.6968   27.5099   13.7020 H           1 ROC       0.0557
     69 H20        19.9168   23.9176   13.6301 H           1 ROC       0.0557
     70 H21        19.7577   28.7579   13.8620 H           1 ROC       0.0599
     71 H22        21.9583   25.1832   13.8104 H           1 ROC       0.0599
     72 H23        21.8895   27.6056   13.9235 H           1 ROC       0.0559
     73 H24        15.3006   20.0780   14.7902 H           1 ROC       0.2057
     74 H25        16.3472   21.6856   15.9697 H           1 ROC       0.0841
     75 H26        16.7794   21.8460   14.3012 H           1 ROC       0.0841
     76 H27        13.1014   21.9593   15.2556 H           1 ROC       0.1100
     77 H28        11.6613   20.0282   15.5301 H           1 ROC       0.0348
     78 H29        13.0085   18.9098   15.3535 H           1 ROC       0.0348
     79 H30        11.8146   20.7168   13.2169 H           1 ROC       0.0309
     80 H31        11.1246   18.7477   12.0521 H           1 ROC       0.0268
     81 H32        10.5847   18.5570   13.7146 H           1 ROC       0.0268
     82 H33        11.5622   16.4546   12.7207 H           1 ROC       0.0265
     83 H34        12.4019   16.9587   14.1842 H           1 ROC       0.0265
     84 H35        13.3300   17.3290   11.2925 H           1 ROC       0.0265
     85 H36        14.0786   16.3155   12.5291 H           1 ROC       0.0265
     86 H37        15.3271   18.4564   12.1346 H           1 ROC       0.0270
     87 H38        14.8014   18.2654   13.8047 H           1 ROC       0.0270
     88 H39        13.4662   19.9706   11.6294 H           1 ROC       0.0355
     89 H40        15.5286   20.9502   12.5751 H           1 ROC       0.0818
     90 H41        14.0954   21.9318   12.8595 H           1 ROC       0.0818
     91 H42        14.4825   19.0212   16.6879 H           1 ROC       0.1859
     92 H43        15.0742   20.0764   20.7226 H           1 ROC       0.0254
     93 H44        13.7145   20.8841   19.9596 H           1 ROC       0.0254
     94 H45        15.3654   21.2353   19.4148 H           1 ROC       0.0254
     95 H46        16.2285   18.1670   19.6858 H           1 ROC       0.0254
     96 H47        16.7748   19.2228   18.3701 H           1 ROC       0.0254
     97 H48        15.9488   17.6984   18.0050 H           1 ROC       0.0254
     98 H49        13.6770   17.8715   20.0989 H           1 ROC       0.0254
     99 H50        13.4369   17.4667   18.3922 H           1 ROC       0.0254
    100 H51        12.5155   18.7876   19.1237 H           1 ROC       0.0254
@<TRIPOS>BOND
     1     2     1   2
     2     2     4   1
     3    13     2  am
     4     4     3  ar
     5     3    12  ar
     6     4     5  ar
     7     5     6  ar
     8     6     7  ar
     9     7     8  ar
    10    12     7  ar
    11     8     9  ar
    12    10     9  ar
    13    11    10  ar
    14    12    11  ar
    15    14    13   1
    16    15    14   1
    17    14    17   1
    18    15    16   2
    19    24    15  am
    20    17    18   1
    21    18    19   2
    22    18    20  am
    23    21    22   1
    24    23    21   1
    25    21    33   1
    26    23    24   1
    27    23    25   1
    28    25    26   1
    29    26    27  ar
    30    26    28  ar
    31    27    29  ar
    32    28    30  ar
    33    29    31  ar
    34    30    31  ar
    35    33    32   1
    36    32    34   1
    37    32    44   1
    38    34    35   1
    39    34    37   1
    40    35    36   2
    41    35    45  am
    42    37    38   1
    43    38    39   1
    44    38    43   1
    45    39    40   1
    46    40    41   1
    47    41    42   1
    48    42    43   1
    49    43    44   1
    50    45    46   1
    51    46    47   1
    52    46    48   1
    53    46    49   1
    54     5    50   1
    55     6    51   1
    56     8    52   1
    57     9    53   1
    58    10    54   1
    59    11    55   1
    60    13    56   1
    61    14    57   1
    62    17    58   1
    63    17    59   1
    64    20    60   1
    65    20    61   1
    66    21    62   1
    67    22    63   1
    68    23    64   1
    69    24    65   1
    70    25    66   1
    71    25    67   1
    72    27    68   1
    73    28    69   1
    74    29    70   1
    75    30    71   1
    76    31    72   1
    77    32    73   1
    78    33    74   1
    79    33    75   1
    80    34    76   1
    81    37    77   1
    82    37    78   1
    83    38    79   1
    84    39    80   1
    85    39    81   1
    86    40    82   1
    87    40    83   1
    88    41    84   1
    89    41    85   1
    90    42    86   1
    91    42    87   1
    92    43    88   1
    93    44    89   1
    94    44    90   1
    95    45    91   1
    96    47    92   1
    97    47    93   1
    98    47    94   1
    99    48    95   1
   100    48    96   1
   101    48    97   1
   102    49    98   1
   103    49    99   1
   104    49   100   1
@<TRIPOS>SUBSTRUCTURE
     1  ROC      2

