@<TRIPOS>MOLECULE
3cyx_ligand_021
   100   104
SMALL
GAST_HUCK
****
This file was generated by PARSER (from files_GN.cpp)

@<TRIPOS>ATOM
      1 O1         17.4955   20.9061   20.6729 O.2         1 ROC      -0.3762
      2 C1         18.1268   21.6852   19.9662 C.2         1 ROC       0.2293
      3 N1         20.1122   22.9028   19.4910 N.ar        1 ROC      -0.2737
      4 C2         19.4614   21.9683   20.2415 C.ar        1 ROC       0.1219
      5 C3         20.1806   21.3616   21.3033 C.ar        1 ROC      -0.0136
      6 C4         21.5069   21.7466   21.5627 C.ar        1 ROC      -0.0314
      7 C5         22.1376   22.7237   20.7612 C.ar        1 ROC       0.0097
      8 C6         23.4689   23.1408   20.9852 C.ar        1 ROC      -0.0444
      9 C7         24.0511   24.1167   20.1544 C.ar        1 ROC      -0.0546
     10 C8         23.3097   24.6820   19.0991 C.ar        1 ROC      -0.0545
     11 C9R        21.9847   24.2727   18.8689 C.ar        1 ROC      -0.0370
     12 C10        21.3937   23.2968   19.6965 C.ar        1 ROC       0.0527
     13 N2         17.5101   22.2916   18.9535 N.am        1 ROC      -0.2600
     14 C11        16.1041   22.2481   18.6383 C.3         1 ROC       0.1473
     15 C12        15.6154   20.8981   18.3640 C.2         1 ROC       0.2045
     16 O2         16.3302   20.1311   17.7368 O.2         1 ROC      -0.3943
     17 C13        15.7938   23.1719   17.4173 C.3         1 ROC       0.0773
     18 C14        16.0438   24.5845   17.6472 C.2         1 ROC       0.1780
     19 O3         16.7332   25.2316   16.8705 O.2         1 ROC      -0.3970
     20 N3         15.5031   25.2315   18.6580 N.am        1 ROC      -0.3007
     21 C15        12.1160   19.6418   18.4186 C.3         1 ROC       0.1194
     22 O4         11.6938   19.7256   19.7845 O.3         1 ROC      -0.3840
     23 C16        13.6552   19.3849   18.2682 C.3         1 ROC       0.0823
     24 N4         14.3539   20.5867   18.6475 N.am        1 ROC      -0.2772
     25 C17        14.2294   18.1161   18.9757 C.3         1 ROC       0.0066
     26 C18        13.8303   17.9150   20.3942 C.ar        1 ROC      -0.0408
     27 C19        13.0333   16.7992   20.7619 C.ar        1 ROC      -0.0603
     28 C20        14.1954   18.8392   21.4010 C.ar        1 ROC      -0.0603
     29 C21        12.6030   16.6262   22.0852 C.ar        1 ROC      -0.0686
     30 C22        13.7330   18.6849   22.7240 C.ar        1 ROC      -0.0686
     31 C23        12.9521   17.5694   23.0724 C.ar        1 ROC      -0.0687
     32 N5         11.4736   18.2122   16.2775 N.4         1 ROC       0.2562
     33 C24        11.1951   18.5994   17.7143 C.3         1 ROC      -0.0008
     34 C25        10.4251   17.2553   15.7440 C.3         1 ROC       0.0688
     35 C26        10.2521   16.0343   16.5338 C.2         1 ROC       0.2251
     36 O5         11.1308   15.1808   16.4852 O.2         1 ROC      -0.3909
     37 C27        10.6892   16.8439   14.2649 C.3         1 ROC       0.0113
     38 C28        10.8533   18.0855   13.3351 C.3         1 ROC      -0.0261
     39 C29        11.1467   17.7033   11.8523 C.3         1 ROC      -0.0494
     40 C30        12.5927   17.1911   11.6225 C.3         1 ROC      -0.0528
     41 C31        13.6503   18.1686   12.1936 C.3         1 ROC      -0.0526
     42 C32        13.3824   18.5132   13.6834 C.3         1 ROC      -0.0451
     43 C33        11.9370   19.0570   13.8931 C.3         1 ROC       0.0024
     44 C34        11.6271   19.4051   15.3742 C.3         1 ROC      -0.0266
     45 N6          9.1525   15.8628   17.2604 N.am        1 ROC      -0.2771
     46 C35         8.6641   14.6644   17.9050 C.3         1 ROC       0.0448
     47 C36         9.7441   13.9923   18.8130 C.3         1 ROC      -0.0396
     48 C37         8.1567   13.6519   16.8372 C.3         1 ROC      -0.0396
     49 C38         7.4605   15.1039   18.7967 C.3         1 ROC      -0.0396
     50 H1         19.7426   20.6529   21.8976 H           1 ROC       0.0729
     51 H2         22.0051   21.3141   22.3428 H           1 ROC       0.0774
     52 H3         24.0207   22.7382   21.7467 H           1 ROC       0.0657
     53 H4         25.0111   24.4184   20.3208 H           1 ROC       0.0652
     54 H5         23.7363   25.3904   18.5021 H           1 ROC       0.0657
     55 H6         21.4516   24.6879   18.1022 H           1 ROC       0.0653
     56 H7         18.0560   22.8774   18.4050 H           1 ROC       0.1882
     57 H8         15.5697   22.6511   19.5060 H           1 ROC       0.0826
     58 H9         14.7381   23.0743   17.1470 H           1 ROC       0.0551
     59 H10        16.3783   22.8299   16.5586 H           1 ROC       0.0551
     60 H11        15.6622   26.1800   18.7622 H           1 ROC       0.1814
     61 H12        14.9683   24.7638   19.3195 H           1 ROC       0.1814
     62 H13        11.8747   20.6264   18.0096 H           1 ROC       0.0672
     63 H14        12.4288   20.1604   20.2625 H           1 ROC       0.2101
     64 H15        13.8319   19.2511   17.1946 H           1 ROC       0.0606
     65 H16        13.8215   21.2876   19.0591 H           1 ROC       0.1857
     66 H17        15.3158   18.1360   18.9285 H           1 ROC       0.0449
     67 H18        13.9216   17.2568   18.3779 H           1 ROC       0.0449
     68 H19        12.7404   16.1164   20.0628 H           1 ROC       0.0557
     69 H20        14.7758   19.6458   21.1756 H           1 ROC       0.0557
     70 H21        12.0364   15.8111   22.3385 H           1 ROC       0.0599
     71 H22        13.9789   19.3735   23.4415 H           1 ROC       0.0599
     72 H23        12.6297   17.4451   24.0382 H           1 ROC       0.0559
     73 H24        12.3742   17.7213   16.2724 H           1 ROC       0.2057
     74 H25        10.1726   18.9885   17.7759 H           1 ROC       0.0841
     75 H26        11.2318   17.6989   18.3246 H           1 ROC       0.0841
     76 H27         9.4690   17.7984   15.7400 H           1 ROC       0.1100
     77 H28         9.8526   16.2423   13.8975 H           1 ROC       0.0348
     78 H29        11.5863   16.2271   14.2129 H           1 ROC       0.0348
     79 H30         9.8935   18.6132   13.3357 H           1 ROC       0.0309
     80 H31        10.9943   18.5879   11.2267 H           1 ROC       0.0268
     81 H32        10.4357   16.9453   11.5125 H           1 ROC       0.0268
     82 H33        12.7614   17.0630   10.5489 H           1 ROC       0.0265
     83 H34        12.7155   16.2084   12.0899 H           1 ROC       0.0265
     84 H35        13.6378   19.0914   11.6049 H           1 ROC       0.0265
     85 H36        14.6425   17.7244   12.0977 H           1 ROC       0.0265
     86 H37        14.1093   19.2620   14.0024 H           1 ROC       0.0270
     87 H38        13.5477   17.6194   14.2869 H           1 ROC       0.0270
     88 H39        11.8642   19.9941   13.3244 H           1 ROC       0.0355
     89 H40        12.4350   20.0517   15.7159 H           1 ROC       0.0818
     90 H41        10.7061   20.0019   15.4044 H           1 ROC       0.0818
     91 H42         8.5676   16.6415   17.3153 H           1 ROC       0.1859
     92 H43         9.3050   13.1894   19.4036 H           1 ROC       0.0254
     93 H44        10.1790   14.7201   19.4999 H           1 ROC       0.0254
     94 H45        10.5537   13.5585   18.2238 H           1 ROC       0.0254
     95 H46         7.7180   12.7724   17.3165 H           1 ROC       0.0254
     96 H47         8.9747   13.3138   16.1966 H           1 ROC       0.0254
     97 H48         7.3968   14.1115   16.2037 H           1 ROC       0.0254
     98 H49         7.0043   14.2428   19.2868 H           1 ROC       0.0254
     99 H50         6.6947   15.5945   18.1908 H           1 ROC       0.0254
    100 H51         7.7871   15.8070   19.5673 H           1 ROC       0.0254
@<TRIPOS>BOND
     1     2     1   2
     2     2     4   1
     3    13     2  am
     4     4     3  ar
     5     3    12  ar
     6     4     5  ar
     7     5     6  ar
     8     6     7  ar
     9     7     8  ar
    10    12     7  ar
    11     8     9  ar
    12    10     9  ar
    13    11    10  ar
    14    12    11  ar
    15    14    13   1
    16    15    14   1
    17    14    17   1
    18    15    16   2
    19    24    15  am
    20    17    18   1
    21    18    19   2
    22    18    20  am
    23    21    22   1
    24    23    21   1
    25    21    33   1
    26    23    24   1
    27    23    25   1
    28    25    26   1
    29    26    27  ar
    30    26    28  ar
    31    27    29  ar
    32    28    30  ar
    33    29    31  ar
    34    30    31  ar
    35    33    32   1
    36    32    34   1
    37    32    44   1
    38    34    35   1
    39    34    37   1
    40    35    36   2
    41    35    45  am
    42    37    38   1
    43    38    39   1
    44    38    43   1
    45    39    40   1
    46    40    41   1
    47    41    42   1
    48    42    43   1
    49    43    44   1
    50    45    46   1
    51    46    47   1
    52    46    48   1
    53    46    49   1
    54     5    50   1
    55     6    51   1
    56     8    52   1
    57     9    53   1
    58    10    54   1
    59    11    55   1
    60    13    56   1
    61    14    57   1
    62    17    58   1
    63    17    59   1
    64    20    60   1
    65    20    61   1
    66    21    62   1
    67    22    63   1
    68    23    64   1
    69    24    65   1
    70    25    66   1
    71    25    67   1
    72    27    68   1
    73    28    69   1
    74    29    70   1
    75    30    71   1
    76    31    72   1
    77    32    73   1
    78    33    74   1
    79    33    75   1
    80    34    76   1
    81    37    77   1
    82    37    78   1
    83    38    79   1
    84    39    80   1
    85    39    81   1
    86    40    82   1
    87    40    83   1
    88    41    84   1
    89    41    85   1
    90    42    86   1
    91    42    87   1
    92    43    88   1
    93    44    89   1
    94    44    90   1
    95    45    91   1
    96    47    92   1
    97    47    93   1
    98    47    94   1
    99    48    95   1
   100    48    96   1
   101    48    97   1
   102    49    98   1
   103    49    99   1
   104    49   100   1
@<TRIPOS>SUBSTRUCTURE
     1  ROC      2

