@<TRIPOS>MOLECULE
3cyx_ligand_071
   100   104
SMALL
GAST_HUCK
****
This file was generated by PARSER (from files_GN.cpp)

@<TRIPOS>ATOM
      1 O1         17.5359   21.1477   17.3383 O.2         1 ROC      -0.3762
      2 C1         17.4095   22.3230   17.0037 C.2         1 ROC       0.2293
      3 N1         17.1495   23.8978   15.2471 N.ar        1 ROC      -0.2737
      4 C2         16.9611   22.6351   15.7246 C.ar        1 ROC       0.1219
      5 C3         16.3174   21.6958   14.8823 C.ar        1 ROC      -0.0136
      6 C4         15.8771   22.0884   13.6082 C.ar        1 ROC      -0.0314
      7 C5         16.0979   23.4056   13.1542 C.ar        1 ROC       0.0097
      8 C6         15.6847   23.8438   11.8793 C.ar        1 ROC      -0.0444
      9 C7         15.9842   25.1492   11.4446 C.ar        1 ROC      -0.0546
     10 C8         16.6662   26.0373   12.2975 C.ar        1 ROC      -0.0545
     11 C9R        17.0331   25.6301   13.5932 C.ar        1 ROC      -0.0370
     12 C10        16.7661   24.3141   14.0177 C.ar        1 ROC       0.0527
     13 N2         17.6770   23.3074   17.8538 N.am        1 ROC      -0.2600
     14 C11        18.1289   23.3000   19.2211 C.3         1 ROC       0.1473
     15 C12        19.4983   23.8086   19.2140 C.2         1 ROC       0.2045
     16 O2         20.4100   23.0368   18.9410 O.2         1 ROC      -0.3943
     17 C13        17.9648   21.9947   20.0686 C.3         1 ROC       0.0773
     18 C14        16.6086   21.5363   20.3435 C.2         1 ROC       0.1780
     19 O3         16.4356   20.3642   20.6527 O.2         1 ROC      -0.3970
     20 N3         15.5355   22.3018   20.3075 N.am        1 ROC      -0.3007
     21 C15        21.3872   26.4326   20.5375 C.3         1 ROC       0.1194
     22 O4         20.6192   27.5987   20.8500 O.3         1 ROC      -0.3840
     23 C16        20.9543   25.8225   19.1570 C.3         1 ROC       0.0823
     24 N4         19.7110   25.1195   19.3277 N.am        1 ROC      -0.2772
     25 C17        20.7854   26.9069   18.0443 C.3         1 ROC       0.0066
     26 C18        20.6633   26.5210   16.6047 C.ar        1 ROC      -0.0408
     27 C19        20.9097   27.5280   15.6320 C.ar        1 ROC      -0.0603
     28 C20        20.3129   25.2286   16.1387 C.ar        1 ROC      -0.0603
     29 C21        20.7960   27.2586   14.2556 C.ar        1 ROC      -0.0686
     30 C22        20.1834   24.9604   14.7620 C.ar        1 ROC      -0.0686
     31 C23        20.4193   25.9776   13.8194 C.ar        1 ROC      -0.0687
     32 N5         23.8812   25.7582   20.1887 N.4         1 ROC       0.2562
     33 C24        22.9017   26.8054   20.6634 C.3         1 ROC      -0.0008
     34 C25        25.2960   26.2626   19.9988 C.3         1 ROC       0.0688
     35 C26        25.4456   27.3814   19.0647 C.2         1 ROC       0.2251
     36 O5         24.6171   27.5080   18.1718 O.2         1 ROC      -0.3909
     37 C27        26.2425   25.1294   19.4801 C.3         1 ROC       0.0113
     38 C28        26.1921   23.8460   20.3558 C.3         1 ROC      -0.0261
     39 C29        27.0908   22.6941   19.8041 C.3         1 ROC      -0.0494
     40 C30        26.4995   21.9873   18.5548 C.3         1 ROC      -0.0528
     41 C31        25.0413   21.5178   18.7914 C.3         1 ROC      -0.0526
     42 C32        24.1338   22.6702   19.2932 C.3         1 ROC      -0.0451
     43 C33        24.7248   23.3603   20.5627 C.3         1 ROC       0.0024
     44 C34        23.8411   24.5355   21.0672 C.3         1 ROC      -0.0266
     45 N6         26.5764   28.0814   19.0898 N.am        1 ROC      -0.2771
     46 C35        27.1151   29.1114   18.2276 C.3         1 ROC       0.0448
     47 C36        28.5604   28.6589   17.8571 C.3         1 ROC      -0.0396
     48 C37        27.1850   30.4073   19.0885 C.3         1 ROC      -0.0396
     49 C38        26.3285   29.4180   16.9129 C.3         1 ROC      -0.0396
     50 H1         16.1452   20.7360   15.1949 H           1 ROC       0.0729
     51 H2         15.4056   21.4054   13.0106 H           1 ROC       0.0774
     52 H3         15.1721   23.2159   11.2610 H           1 ROC       0.0657
     53 H4         15.7002   25.4577   10.5104 H           1 ROC       0.0652
     54 H5         16.8739   26.9888   11.9833 H           1 ROC       0.0657
     55 H6         17.5078   26.2870   14.2181 H           1 ROC       0.0653
     56 H7         17.5807   24.2001   17.4826 H           1 ROC       0.1882
     57 H8         17.4980   24.0444   19.7244 H           1 ROC       0.0826
     58 H9         18.4516   22.1637   21.0342 H           1 ROC       0.0551
     59 H10        18.5045   21.1769   19.5796 H           1 ROC       0.0551
     60 H11        14.6651   21.9170   20.5060 H           1 ROC       0.1814
     61 H12        15.6041   23.2433   20.0838 H           1 ROC       0.1814
     62 H13        21.1467   25.7157   21.3222 H           1 ROC       0.0672
     63 H14        19.6897   27.3725   20.6372 H           1 ROC       0.2101
     64 H15        21.7373   25.1367   18.8313 H           1 ROC       0.0606
     65 H16        18.9378   25.6740   19.5290 H           1 ROC       0.1857
     66 H17        21.6454   27.5745   18.1093 H           1 ROC       0.0449
     67 H18        19.9023   27.5015   18.2891 H           1 ROC       0.0449
     68 H19        21.1907   28.4691   15.9211 H           1 ROC       0.0557
     69 H20        20.1480   24.4617   16.7885 H           1 ROC       0.0557
     70 H21        20.9862   27.9953   13.5767 H           1 ROC       0.0599
     71 H22        19.9087   24.0269   14.4451 H           1 ROC       0.0599
     72 H23        20.3120   25.7864   12.8231 H           1 ROC       0.0559
     73 H24        23.5736   25.4655   19.2618 H           1 ROC       0.2057
     74 H25        23.1151   27.0514   21.7088 H           1 ROC       0.0841
     75 H26        23.0471   27.7334   20.1098 H           1 ROC       0.0841
     76 H27        25.6648   26.5844   20.9786 H           1 ROC       0.1100
     77 H28        27.2773   25.4901   19.4674 H           1 ROC       0.0348
     78 H29        25.9720   24.8752   18.4522 H           1 ROC       0.0348
     79 H30        26.5964   24.1154   21.3381 H           1 ROC       0.0309
     80 H31        27.2223   21.9443   20.5908 H           1 ROC       0.0268
     81 H32        28.0836   23.0810   19.5595 H           1 ROC       0.0268
     82 H33        27.1165   21.1190   18.3095 H           1 ROC       0.0265
     83 H34        26.5281   22.6641   17.6965 H           1 ROC       0.0265
     84 H35        25.0414   20.7113   19.5284 H           1 ROC       0.0265
     85 H36        24.6345   21.1183   17.8586 H           1 ROC       0.0265
     86 H37        23.1486   22.2554   19.5270 H           1 ROC       0.0270
     87 H38        24.0012   23.3974   18.4887 H           1 ROC       0.0270
     88 H39        24.7316   22.6076   21.3596 H           1 ROC       0.0355
     89 H40        22.8274   24.1460   21.1480 H           1 ROC       0.0818
     90 H41        24.1610   24.8054   22.0793 H           1 ROC       0.0818
     91 H42        27.1794   27.8264   19.8056 H           1 ROC       0.1859
     92 H43        29.0692   29.4226   17.2622 H           1 ROC       0.0254
     93 H44        28.5353   27.7336   17.2764 H           1 ROC       0.0254
     94 H45        29.1564   28.4785   18.7554 H           1 ROC       0.0254
     95 H46        27.6532   31.2229   18.5300 H           1 ROC       0.0254
     96 H47        27.7691   30.2407   19.9982 H           1 ROC       0.0254
     97 H48        26.1823   30.7254   19.3816 H           1 ROC       0.0254
     98 H49        26.8109   30.2239   16.3532 H           1 ROC       0.0254
     99 H50        25.3073   29.7297   17.1385 H           1 ROC       0.0254
    100 H51        26.2929   28.5387   16.2664 H           1 ROC       0.0254
@<TRIPOS>BOND
     1     2     1   2
     2     2     4   1
     3    13     2  am
     4     4     3  ar
     5     3    12  ar
     6     4     5  ar
     7     5     6  ar
     8     6     7  ar
     9     7     8  ar
    10    12     7  ar
    11     8     9  ar
    12    10     9  ar
    13    11    10  ar
    14    12    11  ar
    15    14    13   1
    16    15    14   1
    17    14    17   1
    18    15    16   2
    19    24    15  am
    20    17    18   1
    21    18    19   2
    22    18    20  am
    23    21    22   1
    24    23    21   1
    25    21    33   1
    26    23    24   1
    27    23    25   1
    28    25    26   1
    29    26    27  ar
    30    26    28  ar
    31    27    29  ar
    32    28    30  ar
    33    29    31  ar
    34    30    31  ar
    35    33    32   1
    36    32    34   1
    37    32    44   1
    38    34    35   1
    39    34    37   1
    40    35    36   2
    41    35    45  am
    42    37    38   1
    43    38    39   1
    44    38    43   1
    45    39    40   1
    46    40    41   1
    47    41    42   1
    48    42    43   1
    49    43    44   1
    50    45    46   1
    51    46    47   1
    52    46    48   1
    53    46    49   1
    54     5    50   1
    55     6    51   1
    56     8    52   1
    57     9    53   1
    58    10    54   1
    59    11    55   1
    60    13    56   1
    61    14    57   1
    62    17    58   1
    63    17    59   1
    64    20    60   1
    65    20    61   1
    66    21    62   1
    67    22    63   1
    68    23    64   1
    69    24    65   1
    70    25    66   1
    71    25    67   1
    72    27    68   1
    73    28    69   1
    74    29    70   1
    75    30    71   1
    76    31    72   1
    77    32    73   1
    78    33    74   1
    79    33    75   1
    80    34    76   1
    81    37    77   1
    82    37    78   1
    83    38    79   1
    84    39    80   1
    85    39    81   1
    86    40    82   1
    87    40    83   1
    88    41    84   1
    89    41    85   1
    90    42    86   1
    91    42    87   1
    92    43    88   1
    93    44    89   1
    94    44    90   1
    95    45    91   1
    96    47    92   1
    97    47    93   1
    98    47    94   1
    99    48    95   1
   100    48    96   1
   101    48    97   1
   102    49    98   1
   103    49    99   1
   104    49   100   1
@<TRIPOS>SUBSTRUCTURE
     1  ROC      2

