@<TRIPOS>MOLECULE
3cyx_ligand_061
   100   104
SMALL
GAST_HUCK
****
This file was generated by PARSER (from files_GN.cpp)

@<TRIPOS>ATOM
      1 O1         19.5156   25.5140   18.5703 O.2         1 ROC      -0.3762
      2 C1         20.1155   24.5147   18.9440 C.2         1 ROC       0.2293
      3 N1         22.2037   23.3615   19.0294 N.ar        1 ROC      -0.2737
      4 C2         21.4887   24.4762   18.7006 C.ar        1 ROC       0.1219
      5 C3         22.1946   25.5582   18.1175 C.ar        1 ROC      -0.0136
      6 C4         23.5794   25.4674   17.8980 C.ar        1 ROC      -0.0314
      7 C5         24.2763   24.2962   18.2560 C.ar        1 ROC       0.0097
      8 C6         25.6685   24.1596   18.0631 C.ar        1 ROC      -0.0444
      9 C7         26.3184   22.9681   18.4336 C.ar        1 ROC      -0.0546
     10 C8         25.5836   21.9018   18.9853 C.ar        1 ROC      -0.0545
     11 C9R        24.1951   22.0294   19.1788 C.ar        1 ROC      -0.0370
     12 C10        23.5422   23.2248   18.8299 C.ar        1 ROC       0.0527
     13 N2         19.4824   23.5303   19.5849 N.am        1 ROC      -0.2600
     14 C11        18.1232   23.4165   20.0995 C.3         1 ROC       0.1473
     15 C12        17.4140   22.2347   19.5798 C.2         1 ROC       0.2045
     16 O2         18.0063   21.3962   18.9000 O.2         1 ROC      -0.3943
     17 C13        17.2074   24.6966   20.0644 C.3         1 ROC       0.0773
     18 C14        16.6437   25.0399   18.7607 C.2         1 ROC       0.1780
     19 O3         17.2989   24.8927   17.7452 O.2         1 ROC      -0.3970
     20 N3         15.3911   25.4126   18.6112 N.am        1 ROC      -0.3007
     21 C15        13.9465   21.9289   18.7114 C.3         1 ROC       0.1194
     22 O4         12.7032   21.2463   18.8448 O.3         1 ROC      -0.3840
     23 C16        15.1618   21.1473   19.3417 C.3         1 ROC       0.0823
     24 N4         16.1149   22.1076   19.8387 N.am        1 ROC      -0.2772
     25 C17        14.7850   20.2370   20.5560 C.3         1 ROC       0.0066
     26 C18        13.9924   19.0278   20.1977 C.ar        1 ROC      -0.0408
     27 C19        12.6233   18.9120   20.5556 C.ar        1 ROC      -0.0603
     28 C20        14.6045   17.9512   19.5148 C.ar        1 ROC      -0.0603
     29 C21        11.8903   17.7618   20.2176 C.ar        1 ROC      -0.0686
     30 C22        13.8701   16.7986   19.1803 C.ar        1 ROC      -0.0686
     31 C23        12.5114   16.7048   19.5300 C.ar        1 ROC      -0.0687
     32 N5         13.9687   21.5708   15.9950 N.4         1 ROC       0.2562
     33 C24        14.1853   22.4191   17.2409 C.3         1 ROC      -0.0008
     34 C25        15.0748   21.6924   14.9613 C.3         1 ROC       0.0688
     35 C26        15.4202   23.0754   14.6006 C.2         1 ROC       0.2251
     36 O5         14.5135   23.8323   14.2766 O.2         1 ROC      -0.3909
     37 C27        14.7508   20.9371   13.6267 C.3         1 ROC       0.0113
     38 C28        14.2656   19.4736   13.8478 C.3         1 ROC      -0.0261
     39 C29        13.8293   18.7553   12.5350 C.3         1 ROC      -0.0494
     40 C30        12.4681   19.2523   11.9831 C.3         1 ROC      -0.0528
     41 C31        11.3546   19.2079   13.0599 C.3         1 ROC      -0.0526
     42 C32        11.7678   19.9366   14.3665 C.3         1 ROC      -0.0451
     43 C33        13.1346   19.4129   14.9147 C.3         1 ROC       0.0024
     44 C34        13.5947   20.1317   16.2122 C.3         1 ROC      -0.0266
     45 N6         16.6933   23.4646   14.5656 N.am        1 ROC      -0.2771
     46 C35        17.2604   24.7004   14.0696 C.3         1 ROC       0.0448
     47 C36        18.7890   24.6290   14.3681 C.3         1 ROC      -0.0396
     48 C37        16.6664   25.9620   14.7644 C.3         1 ROC      -0.0396
     49 C38        17.0553   24.7962   12.5221 C.3         1 ROC      -0.0396
     50 H1         21.7156   26.4235   17.8488 H           1 ROC       0.0729
     51 H2         24.0720   26.2582   17.4763 H           1 ROC       0.0774
     52 H3         26.2163   24.9238   17.6577 H           1 ROC       0.0657
     53 H4         27.3282   22.8761   18.3026 H           1 ROC       0.0652
     54 H5         26.0600   21.0351   19.2447 H           1 ROC       0.0657
     55 H6         23.6657   21.2459   19.5694 H           1 ROC       0.0653
     56 H7         20.0465   22.7673   19.8039 H           1 ROC       0.1882
     57 H8         18.2733   23.2072   21.1602 H           1 ROC       0.0826
     58 H9         17.7736   25.5444   20.4491 H           1 ROC       0.0551
     59 H10        16.3884   24.5581   20.7766 H           1 ROC       0.0551
     60 H11        15.0469   25.6123   17.7289 H           1 ROC       0.1814
     61 H12        14.8000   25.4701   19.3772 H           1 ROC       0.1814
     62 H13        13.7963   22.8274   19.3203 H           1 ROC       0.0672
     63 H14        12.0359   21.8044   18.3932 H           1 ROC       0.2101
     64 H15        15.6337   20.5250   18.5740 H           1 ROC       0.0606
     65 H16        15.7287   22.7986   20.4060 H           1 ROC       0.1857
     66 H17        14.2536   20.8475   21.2908 H           1 ROC       0.0449
     67 H18        15.6976   19.8860   21.0515 H           1 ROC       0.0449
     68 H19        12.1514   19.6708   21.0519 H           1 ROC       0.0557
     69 H20        15.5957   17.9951   19.2621 H           1 ROC       0.0557
     70 H21        10.9007   17.6937   20.4743 H           1 ROC       0.0599
     71 H22        14.3252   16.0269   18.6866 H           1 ROC       0.0599
     72 H23        11.9775   15.8666   19.2862 H           1 ROC       0.0559
     73 H24        13.1430   21.9791   15.5456 H           1 ROC       0.2057
     74 H25        15.1976   22.8379   17.2387 H           1 ROC       0.0841
     75 H26        13.5135   23.2724   17.0997 H           1 ROC       0.0841
     76 H27        15.9662   21.2076   15.3846 H           1 ROC       0.1100
     77 H28        15.6488   20.9126   12.9995 H           1 ROC       0.0348
     78 H29        13.9813   21.4840   13.0750 H           1 ROC       0.0348
     79 H30        15.1192   18.9143   14.2401 H           1 ROC       0.0309
     80 H31        13.7517   17.6809   12.7302 H           1 ROC       0.0268
     81 H32        14.5993   18.8900   11.7738 H           1 ROC       0.0268
     82 H33        12.1733   18.6279   11.1339 H           1 ROC       0.0265
     83 H34        12.5780   20.2744   11.6130 H           1 ROC       0.0265
     84 H35        11.1209   18.1636   13.2897 H           1 ROC       0.0265
     85 H36        10.4488   19.6708   12.6592 H           1 ROC       0.0265
     86 H37        10.9897   19.7733   15.1158 H           1 ROC       0.0270
     87 H38        11.8200   21.0096   14.1722 H           1 ROC       0.0270
     88 H39        12.9785   18.3608   15.1766 H           1 ROC       0.0355
     89 H40        12.7651   20.0355   16.9011 H           1 ROC       0.0818
     90 H41        14.4476   19.5929   16.6379 H           1 ROC       0.0818
     91 H42        17.3338   22.7993   14.8728 H           1 ROC       0.1859
     92 H43        19.2957   25.5383   14.0377 H           1 ROC       0.0254
     93 H44        19.2526   23.7816   13.8577 H           1 ROC       0.0254
     94 H45        18.9674   24.5134   15.4385 H           1 ROC       0.0254
     95 H46        17.2369   26.8565   14.4986 H           1 ROC       0.0254
     96 H47        16.6805   25.8496   15.8350 H           1 ROC       0.0254
     97 H48        15.6312   26.1162   14.4640 H           1 ROC       0.0254
     98 H49        17.5682   25.6736   12.1181 H           1 ROC       0.0254
     99 H50        15.9954   24.8802   12.2702 H           1 ROC       0.0254
    100 H51        17.4490   23.9085   12.0186 H           1 ROC       0.0254
@<TRIPOS>BOND
     1     2     1   2
     2     2     4   1
     3    13     2  am
     4     4     3  ar
     5     3    12  ar
     6     4     5  ar
     7     5     6  ar
     8     6     7  ar
     9     7     8  ar
    10    12     7  ar
    11     8     9  ar
    12    10     9  ar
    13    11    10  ar
    14    12    11  ar
    15    14    13   1
    16    15    14   1
    17    14    17   1
    18    15    16   2
    19    24    15  am
    20    17    18   1
    21    18    19   2
    22    18    20  am
    23    21    22   1
    24    23    21   1
    25    21    33   1
    26    23    24   1
    27    23    25   1
    28    25    26   1
    29    26    27  ar
    30    26    28  ar
    31    27    29  ar
    32    28    30  ar
    33    29    31  ar
    34    30    31  ar
    35    33    32   1
    36    32    34   1
    37    32    44   1
    38    34    35   1
    39    34    37   1
    40    35    36   2
    41    35    45  am
    42    37    38   1
    43    38    39   1
    44    38    43   1
    45    39    40   1
    46    40    41   1
    47    41    42   1
    48    42    43   1
    49    43    44   1
    50    45    46   1
    51    46    47   1
    52    46    48   1
    53    46    49   1
    54     5    50   1
    55     6    51   1
    56     8    52   1
    57     9    53   1
    58    10    54   1
    59    11    55   1
    60    13    56   1
    61    14    57   1
    62    17    58   1
    63    17    59   1
    64    20    60   1
    65    20    61   1
    66    21    62   1
    67    22    63   1
    68    23    64   1
    69    24    65   1
    70    25    66   1
    71    25    67   1
    72    27    68   1
    73    28    69   1
    74    29    70   1
    75    30    71   1
    76    31    72   1
    77    32    73   1
    78    33    74   1
    79    33    75   1
    80    34    76   1
    81    37    77   1
    82    37    78   1
    83    38    79   1
    84    39    80   1
    85    39    81   1
    86    40    82   1
    87    40    83   1
    88    41    84   1
    89    41    85   1
    90    42    86   1
    91    42    87   1
    92    43    88   1
    93    44    89   1
    94    44    90   1
    95    45    91   1
    96    47    92   1
    97    47    93   1
    98    47    94   1
    99    48    95   1
   100    48    96   1
   101    48    97   1
   102    49    98   1
   103    49    99   1
   104    49   100   1
@<TRIPOS>SUBSTRUCTURE
     1  ROC      2

