@<TRIPOS>MOLECULE
3cyx_ligand_005
   100   104
SMALL
GAST_HUCK
****
This file was generated by PARSER (from files_GN.cpp)

@<TRIPOS>ATOM
      1 O1         19.2969   25.3655   12.7909 O.2         1 ROC      -0.3762
      2 C1         19.0482   25.6102   13.9652 C.2         1 ROC       0.2293
      3 N1         19.8454   26.1659   16.1294 N.ar        1 ROC      -0.2737
      4 C2         20.0518   26.1254   14.7820 C.ar        1 ROC       0.1219
      5 C3         21.2892   26.6158   14.2954 C.ar        1 ROC      -0.0136
      6 C4         22.2521   27.1153   15.1983 C.ar        1 ROC      -0.0314
      7 C5         21.9908   27.1310   16.5830 C.ar        1 ROC       0.0097
      8 C6         22.9252   27.6147   17.5307 C.ar        1 ROC      -0.0444
      9 C7         22.6215   27.5896   18.9033 C.ar        1 ROC      -0.0546
     10 C8         21.3844   27.0877   19.3431 C.ar        1 ROC      -0.0545
     11 C9R        20.4414   26.6140   18.4097 C.ar        1 ROC      -0.0370
     12 C10        20.7407   26.6345   17.0357 C.ar        1 ROC       0.0527
     13 N2         17.8441   25.3903   14.4710 N.am        1 ROC      -0.2600
     14 C11        16.5984   24.9269   13.9174 C.3         1 ROC       0.1473
     15 C12        16.2264   23.7456   14.6906 C.2         1 ROC       0.2045
     16 O2         16.8563   22.7053   14.5143 O.2         1 ROC      -0.3943
     17 C13        16.4415   24.6709   12.3745 C.3         1 ROC       0.0773
     18 C14        16.4160   25.8582   11.5335 C.2         1 ROC       0.1780
     19 O3         16.9129   26.9129   11.8908 O.2         1 ROC      -0.3970
     20 N3         15.8588   25.8427   10.3414 N.am        1 ROC      -0.3007
     21 C15        13.7239   21.8407   15.4310 C.3         1 ROC       0.1194
     22 O4         12.4117   22.4055   15.4049 O.3         1 ROC      -0.3840
     23 C16        14.6901   22.6993   16.3299 C.3         1 ROC       0.0823
     24 N4         15.2305   23.8037   15.5759 N.am        1 ROC      -0.2772
     25 C17        13.9968   23.2280   17.6329 C.3         1 ROC       0.0066
     26 C18        14.9218   23.3440   18.7973 C.ar        1 ROC      -0.0408
     27 C19        15.9400   24.3259   18.8381 C.ar        1 ROC      -0.0603
     28 C20        14.8052   22.4560   19.8898 C.ar        1 ROC      -0.0603
     29 C21        16.8157   24.4023   19.9387 C.ar        1 ROC      -0.0686
     30 C22        15.6892   22.5076   20.9787 C.ar        1 ROC      -0.0686
     31 C23        16.6988   23.4877   21.0007 C.ar        1 ROC      -0.0687
     32 N5         12.6439   19.4091   15.2758 N.4         1 ROC       0.2562
     33 C24        13.6913   20.3339   15.8552 C.3         1 ROC      -0.0008
     34 C25        11.3202   19.3624   16.0114 C.3         1 ROC       0.0688
     35 C26        11.4184   19.0168   17.4342 C.2         1 ROC       0.2251
     36 O5         10.5996   19.5029   18.2043 O.2         1 ROC      -0.3909
     37 C27        10.3321   18.3399   15.3642 C.3         1 ROC       0.0113
     38 C28        10.1508   18.5716   13.8371 C.3         1 ROC      -0.0261
     39 C29         9.1659   17.5531   13.1832 C.3         1 ROC      -0.0494
     40 C30         9.7674   16.1338   13.0090 C.3         1 ROC      -0.0528
     41 C31        11.1346   16.1743   12.2807 C.3         1 ROC      -0.0526
     42 C32        12.1332   17.1494   12.9593 C.3         1 ROC      -0.0451
     43 C33        11.5277   18.5792   13.1016 C.3         1 ROC       0.0024
     44 C34        12.4952   19.5860   13.7891 C.3         1 ROC      -0.0266
     45 N6         12.3218   18.1326   17.8496 N.am        1 ROC      -0.2771
     46 C35        12.5964   17.6391   19.1813 C.3         1 ROC       0.0448
     47 C36        12.8056   18.7708   20.2334 C.3         1 ROC      -0.0396
     48 C37        13.9366   16.8454   19.0763 C.3         1 ROC      -0.0396
     49 C38        11.4563   16.6794   19.6357 C.3         1 ROC      -0.0396
     50 H1         21.5033   26.6267   13.2927 H           1 ROC       0.0729
     51 H2         23.1469   27.4614   14.8362 H           1 ROC       0.0774
     52 H3         23.8289   27.9800   17.2266 H           1 ROC       0.0657
     53 H4         23.3034   27.9306   19.5863 H           1 ROC       0.0652
     54 H5         21.1669   27.0673   20.3393 H           1 ROC       0.0657
     55 H6         19.5465   26.2451   18.7371 H           1 ROC       0.0653
     56 H7         17.7856   25.6135   15.4108 H           1 ROC       0.1882
     57 H8         15.8893   25.7223   14.1650 H           1 ROC       0.0826
     58 H9         15.4926   24.1464   12.2186 H           1 ROC       0.0551
     59 H10        17.2404   24.0119   12.0194 H           1 ROC       0.0551
     60 H11        15.8638   26.6435    9.7965 H           1 ROC       0.1814
     61 H12        15.4263   25.0417   10.0175 H           1 ROC       0.1814
     62 H13        14.0831   21.8703   14.3991 H           1 ROC       0.0672
     63 H14        12.5228   23.3208   15.0643 H           1 ROC       0.2101
     64 H15        15.5247   22.0547   16.6317 H           1 ROC       0.0606
     65 H16        14.8200   24.6756   15.7107 H           1 ROC       0.1857
     66 H17        13.1788   22.5517   17.8974 H           1 ROC       0.0449
     67 H18        13.5267   24.1995   17.4554 H           1 ROC       0.0449
     68 H19        16.0441   24.9971   18.0726 H           1 ROC       0.0557
     69 H20        14.0644   21.7575   19.9020 H           1 ROC       0.0557
     70 H21        17.5394   25.1217   19.9706 H           1 ROC       0.0599
     71 H22        15.5907   21.8470   21.7523 H           1 ROC       0.0599
     72 H23        17.3365   23.5440   21.7942 H           1 ROC       0.0559
     73 H24        13.0384   18.4741   15.3986 H           1 ROC       0.2057
     74 H25        13.6575   20.2909   16.9439 H           1 ROC       0.0841
     75 H26        14.6604   19.9085   15.5703 H           1 ROC       0.0841
     76 H27        10.8574   20.3508   15.9264 H           1 ROC       0.1100
     77 H28         9.3525   18.4248   15.8450 H           1 ROC       0.0348
     78 H29        10.6957   17.3257   15.5407 H           1 ROC       0.0348
     79 H30         9.6996   19.5631   13.7152 H           1 ROC       0.0309
     80 H31         8.8777   17.9274   12.1966 H           1 ROC       0.0268
     81 H32         8.2505   17.4847   13.7786 H           1 ROC       0.0268
     82 H33         9.0716   15.5182   12.4323 H           1 ROC       0.0265
     83 H34         9.8889   15.6598   13.9861 H           1 ROC       0.0265
     84 H35        10.9765   16.4836   11.2436 H           1 ROC       0.0265
     85 H36        11.5649   15.1690   12.2653 H           1 ROC       0.0265
     86 H37        13.0392   17.1973   12.3483 H           1 ROC       0.0270
     87 H38        12.4186   16.7547   13.9368 H           1 ROC       0.0270
     88 H39        11.3585   18.9505   12.0829 H           1 ROC       0.0355
     89 H40        13.4764   19.5009   13.3122 H           1 ROC       0.0818
     90 H41        12.1116   20.5862   13.5742 H           1 ROC       0.0818
     91 H42        12.8937   17.7729   17.1534 H           1 ROC       0.1859
     92 H43        13.1537   18.3589   21.1820 H           1 ROC       0.0254
     93 H44        11.8846   19.3133   20.4359 H           1 ROC       0.0254
     94 H45        13.5536   19.4717   19.8713 H           1 ROC       0.0254
     95 H46        14.2282   16.4392   20.0483 H           1 ROC       0.0254
     96 H47        14.7403   17.5017   18.7283 H           1 ROC       0.0254
     97 H48        13.8492   16.0134   18.3736 H           1 ROC       0.0254
     98 H49        11.6822   16.2447   20.6129 H           1 ROC       0.0254
     99 H50        11.3346   15.8599   18.9223 H           1 ROC       0.0254
    100 H51        10.5046   17.2123   19.7085 H           1 ROC       0.0254
@<TRIPOS>BOND
     1     2     1   2
     2     2     4   1
     3    13     2  am
     4     4     3  ar
     5     3    12  ar
     6     4     5  ar
     7     5     6  ar
     8     6     7  ar
     9     7     8  ar
    10    12     7  ar
    11     8     9  ar
    12    10     9  ar
    13    11    10  ar
    14    12    11  ar
    15    14    13   1
    16    15    14   1
    17    14    17   1
    18    15    16   2
    19    24    15  am
    20    17    18   1
    21    18    19   2
    22    18    20  am
    23    21    22   1
    24    23    21   1
    25    21    33   1
    26    23    24   1
    27    23    25   1
    28    25    26   1
    29    26    27  ar
    30    26    28  ar
    31    27    29  ar
    32    28    30  ar
    33    29    31  ar
    34    30    31  ar
    35    33    32   1
    36    32    34   1
    37    32    44   1
    38    34    35   1
    39    34    37   1
    40    35    36   2
    41    35    45  am
    42    37    38   1
    43    38    39   1
    44    38    43   1
    45    39    40   1
    46    40    41   1
    47    41    42   1
    48    42    43   1
    49    43    44   1
    50    45    46   1
    51    46    47   1
    52    46    48   1
    53    46    49   1
    54     5    50   1
    55     6    51   1
    56     8    52   1
    57     9    53   1
    58    10    54   1
    59    11    55   1
    60    13    56   1
    61    14    57   1
    62    17    58   1
    63    17    59   1
    64    20    60   1
    65    20    61   1
    66    21    62   1
    67    22    63   1
    68    23    64   1
    69    24    65   1
    70    25    66   1
    71    25    67   1
    72    27    68   1
    73    28    69   1
    74    29    70   1
    75    30    71   1
    76    31    72   1
    77    32    73   1
    78    33    74   1
    79    33    75   1
    80    34    76   1
    81    37    77   1
    82    37    78   1
    83    38    79   1
    84    39    80   1
    85    39    81   1
    86    40    82   1
    87    40    83   1
    88    41    84   1
    89    41    85   1
    90    42    86   1
    91    42    87   1
    92    43    88   1
    93    44    89   1
    94    44    90   1
    95    45    91   1
    96    47    92   1
    97    47    93   1
    98    47    94   1
    99    48    95   1
   100    48    96   1
   101    48    97   1
   102    49    98   1
   103    49    99   1
   104    49   100   1
@<TRIPOS>SUBSTRUCTURE
     1  ROC      2

