@<TRIPOS>MOLECULE
3d4z_ligand_048
    26    27
SMALL
GAST_HUCK
****
This file was generated by PARSER (from files_GN.cpp)

@<TRIPOS>ATOM
      1 C1         25.7278   60.2667    8.4369 C.2         1 GIM       0.1465
      2 C2         24.3884   60.2910    7.8181 C.3         1 GIM       0.1586
      3 N10        26.2196   61.2378    9.2442 N.pl3       1 GIM      -0.2404
      4 C3         23.4629   61.3101    8.5403 C.3         1 GIM       0.1253
      5 C4         24.1997   62.6467    8.8666 C.3         1 GIM       0.1183
      6 C5         25.5243   62.4291    9.6807 C.3         1 GIM       0.1196
      7 C6         25.3037   62.4163   11.2229 C.3         1 GIM       0.0773
      8 C7         27.7601   59.7036    8.8648 C.2         1 GIM      -0.0364
      9 C8         27.4887   60.8921    9.5307 C.2         1 GIM       0.0285
     10 N1         26.6612   59.3321    8.1945 N.2         1 GIM      -0.3367
     11 O3         22.9575   60.6965    9.7253 O.3         1 GIM      -0.3839
     12 O2         24.5676   60.6122    6.4425 O.3         1 GIM      -0.3699
     13 O4         24.5165   63.2780    7.6249 O.3         1 GIM      -0.3858
     14 O6         24.6475   63.5899   11.6954 O.3         1 GIM      -0.3918
     15 H1         23.9377   59.2960    7.8648 H           1 GIM       0.0858
     16 H2         22.6008   61.5268    7.8968 H           1 GIM       0.0675
     17 H3         23.5257   63.3224    9.3983 H           1 GIM       0.0654
     18 H4         26.1749   63.2862    9.4736 H           1 GIM       0.0704
     19 H5         26.2639   62.3486   11.7374 H           1 GIM       0.0589
     20 H6         24.7021   61.5588   11.5169 H           1 GIM       0.0589
     21 H7         28.6493   59.1978    8.8634 H           1 GIM       0.0408
     22 H8         28.1499   61.4175   10.1040 H           1 GIM       0.0796
     23 H9         23.7330   60.3222   10.1900 H           1 GIM       0.2103
     24 H10        23.9291   61.3275    6.2398 H           1 GIM       0.2138
     25 H11        23.6518   63.5338    7.2231 H           1 GIM       0.2100
     26 H12        25.2422   64.3364   11.4739 H           1 GIM       0.2095
@<TRIPOS>BOND
     1     1     2   1
     2     1     3   1
     3     1    10   2
     4     2     4   1
     5     2    12   1
     6     3     6   1
     7     3     9   1
     8     4     5   1
     9     4    11   1
    10     5     6   1
    11     5    13   1
    12     6     7   1
    13     7    14   1
    14     9     8   2
    15     8    10   1
    16     2    15   1
    17     4    16   1
    18     5    17   1
    19     6    18   1
    20     7    19   1
    21     7    20   1
    22     8    21   1
    23     9    22   1
    24    11    23   1
    25    12    24   1
    26    13    25   1
    27    14    26   1
@<TRIPOS>SUBSTRUCTURE
     1  GIM      1

