@<TRIPOS>MOLECULE
3d4z_ligand_007
    26    27
SMALL
GAST_HUCK
****
This file was generated by PARSER (from files_GN.cpp)

@<TRIPOS>ATOM
      1 C1         24.0270   66.5333   11.1544 C.2         1 GIM       0.1465
      2 C2         25.0742   65.5227   10.9073 C.3         1 GIM       0.1586
      3 N10        23.1327   66.9431   10.2229 N.pl3       1 GIM      -0.2404
      4 C3         25.3278   65.3764    9.3802 C.3         1 GIM       0.1253
      5 C4         23.9904   65.2332    8.6072 C.3         1 GIM       0.1183
      6 C5         23.0410   66.4593    8.8612 C.3         1 GIM       0.1196
      7 C6         21.5671   66.1104    8.4669 C.3         1 GIM       0.0773
      8 C7         22.8302   68.0450   12.1166 C.2         1 GIM      -0.0364
      9 C8         22.4005   67.9108   10.8065 C.2         1 GIM       0.0285
     10 N1         23.8377   67.1839   12.3141 N.2         1 GIM      -0.3367
     11 O3         26.1773   64.2537    9.1351 O.3         1 GIM      -0.3839
     12 O2         26.2846   65.8759   11.5740 O.3         1 GIM      -0.3699
     13 O4         24.2617   65.0842    7.2125 O.3         1 GIM      -0.3858
     14 O6         20.8650   67.2199    7.9017 O.3         1 GIM      -0.3918
     15 H1         24.7228   64.5721   11.3228 H           1 GIM       0.0858
     16 H2         25.8484   66.2639    9.0183 H           1 GIM       0.0675
     17 H3         23.4990   64.3129    8.9480 H           1 GIM       0.0654
     18 H4         23.3877   67.2763    8.2241 H           1 GIM       0.0704
     19 H5         21.0217   65.7665    9.3474 H           1 GIM       0.0589
     20 H6         21.5273   65.3245    7.7141 H           1 GIM       0.0589
     21 H7         22.4586   68.6922   12.8107 H           1 GIM       0.0408
     22 H8         21.6446   68.4493   10.3776 H           1 GIM       0.0796
     23 H9         25.6908   63.4767    9.5122 H           1 GIM       0.2103
     24 H10        26.5585   66.7311   11.1869 H           1 GIM       0.2138
     25 H11        23.4660   64.6457    6.8358 H           1 GIM       0.2100
     26 H12        21.3966   68.0225    8.1027 H           1 GIM       0.2095
@<TRIPOS>BOND
     1     1     2   1
     2     1     3   1
     3     1    10   2
     4     2     4   1
     5     2    12   1
     6     3     6   1
     7     3     9   1
     8     4     5   1
     9     4    11   1
    10     5     6   1
    11     5    13   1
    12     6     7   1
    13     7    14   1
    14     9     8   2
    15     8    10   1
    16     2    15   1
    17     4    16   1
    18     5    17   1
    19     6    18   1
    20     7    19   1
    21     7    20   1
    22     8    21   1
    23     9    22   1
    24    11    23   1
    25    12    24   1
    26    13    25   1
    27    14    26   1
@<TRIPOS>SUBSTRUCTURE
     1  GIM      1

