@<TRIPOS>MOLECULE
3d4z_ligand_014
    26    27
SMALL
GAST_HUCK
****
This file was generated by PARSER (from files_GN.cpp)

@<TRIPOS>ATOM
      1 C1         25.5335   64.1652    9.3974 C.2         1 GIM       0.1465
      2 C2         25.2818   64.8784    8.1161 C.3         1 GIM       0.1586
      3 N10        26.6717   64.2846   10.1297 N.pl3       1 GIM      -0.2404
      4 C3         26.5891   65.5321    7.5682 C.3         1 GIM       0.1253
      5 C4         27.4391   66.1708    8.6913 C.3         1 GIM       0.1183
      6 C5         27.8093   65.1136    9.7904 C.3         1 GIM       0.1196
      7 C6         28.4767   65.8262   11.0152 C.3         1 GIM       0.0773
      8 C7         25.2938   62.8429   11.0770 C.2         1 GIM      -0.0364
      9 C8         26.5435   63.4424   11.1680 C.2         1 GIM       0.0285
     10 N1         24.6825   63.2989    9.9792 N.2         1 GIM      -0.3367
     11 O3         26.2400   66.4636    6.5547 O.3         1 GIM      -0.3839
     12 O2         24.8096   63.9564    7.1317 O.3         1 GIM      -0.3699
     13 O4         28.6231   66.7441    8.1380 O.3         1 GIM      -0.3858
     14 O6         29.2179   64.9107   11.7863 O.3         1 GIM      -0.3918
     15 H1         24.5324   65.6508    8.2781 H           1 GIM       0.0858
     16 H2         27.2029   64.7569    7.0861 H           1 GIM       0.0675
     17 H3         26.8572   66.9771    9.1486 H           1 GIM       0.0654
     18 H4         28.5562   64.4484    9.3582 H           1 GIM       0.0704
     19 H5         27.7146   66.3063   11.6424 H           1 GIM       0.0589
     20 H6         29.1601   66.5942   10.6863 H           1 GIM       0.0589
     21 H7         24.9067   62.1500   11.7254 H           1 GIM       0.0408
     22 H8         27.2303   63.2429   11.8992 H           1 GIM       0.0796
     23 H9         27.0882   66.6838    6.1087 H           1 GIM       0.2103
     24 H10        23.8600   64.1738    6.9412 H           1 GIM       0.2138
     25 H11        28.3290   67.6240    7.8089 H           1 GIM       0.2100
     26 H12        30.0518   65.3818   12.0317 H           1 GIM       0.2095
@<TRIPOS>BOND
     1     1     2   1
     2     1     3   1
     3     1    10   2
     4     2     4   1
     5     2    12   1
     6     3     6   1
     7     3     9   1
     8     4     5   1
     9     4    11   1
    10     5     6   1
    11     5    13   1
    12     6     7   1
    13     7    14   1
    14     9     8   2
    15     8    10   1
    16     2    15   1
    17     4    16   1
    18     5    17   1
    19     6    18   1
    20     7    19   1
    21     7    20   1
    22     8    21   1
    23     9    22   1
    24    11    23   1
    25    12    24   1
    26    13    25   1
    27    14    26   1
@<TRIPOS>SUBSTRUCTURE
     1  GIM      1

