@<TRIPOS>MOLECULE
3d4z_ligand_015
    26    27
SMALL
GAST_HUCK
****
This file was generated by PARSER (from files_GN.cpp)

@<TRIPOS>ATOM
      1 C1         26.0411   62.6100   10.3139 C.2         1 GIM       0.1465
      2 C2         24.7961   61.9365    9.8916 C.3         1 GIM       0.1586
      3 N10        26.3441   63.9029   10.0656 N.pl3       1 GIM      -0.2404
      4 C3         23.7141   62.9744    9.4652 C.3         1 GIM       0.1253
      5 C4         24.3063   64.1621    8.6302 C.3         1 GIM       0.1183
      6 C5         25.5256   64.8519    9.3437 C.3         1 GIM       0.1196
      7 C6         25.0885   66.0465   10.2582 C.3         1 GIM       0.0773
      8 C7         27.9959   62.9435   11.1634 C.2         1 GIM      -0.0364
      9 C8         27.5641   64.1237   10.5879 C.2         1 GIM       0.0285
     10 N1         27.0457   62.0129   10.9825 N.2         1 GIM      -0.3367
     11 O3         23.0449   63.4674   10.6247 O.3         1 GIM      -0.3839
     12 O2         25.1031   61.0539    8.8160 O.3         1 GIM      -0.3699
     13 O4         24.6962   63.6532    7.3588 O.3         1 GIM      -0.3858
     14 O6         25.2539   67.3045    9.5949 O.3         1 GIM      -0.3918
     15 H1         24.4189   61.3412   10.7270 H           1 GIM       0.0858
     16 H2         22.9582   62.4612    8.8606 H           1 GIM       0.0675
     17 H3         23.5160   64.8925    8.4425 H           1 GIM       0.0654
     18 H4         26.1556   65.2613    8.5546 H           1 GIM       0.0704
     19 H5         25.6923   66.0975   11.1629 H           1 GIM       0.0589
     20 H6         24.0482   65.9618   10.5666 H           1 GIM       0.0589
     21 H7         28.8763   62.8040   11.6551 H           1 GIM       0.0408
     22 H8         28.0836   65.0018   10.5722 H           1 GIM       0.0796
     23 H9         23.7438   63.8352   11.1881 H           1 GIM       0.2103
     24 H10        24.4583   60.3046    8.9003 H           1 GIM       0.2138
     25 H11        23.8707   63.6608    6.8221 H           1 GIM       0.2100
     26 H12        24.6812   67.2585    8.7970 H           1 GIM       0.2095
@<TRIPOS>BOND
     1     1     2   1
     2     1     3   1
     3     1    10   2
     4     2     4   1
     5     2    12   1
     6     3     6   1
     7     3     9   1
     8     4     5   1
     9     4    11   1
    10     5     6   1
    11     5    13   1
    12     6     7   1
    13     7    14   1
    14     9     8   2
    15     8    10   1
    16     2    15   1
    17     4    16   1
    18     5    17   1
    19     6    18   1
    20     7    19   1
    21     7    20   1
    22     8    21   1
    23     9    22   1
    24    11    23   1
    25    12    24   1
    26    13    25   1
    27    14    26   1
@<TRIPOS>SUBSTRUCTURE
     1  GIM      1

