@<TRIPOS>MOLECULE
3d4z_ligand_035
    26    27
SMALL
GAST_HUCK
****
This file was generated by PARSER (from files_GN.cpp)

@<TRIPOS>ATOM
      1 C1         27.5127   64.1250   10.5165 C.2         1 GIM       0.1465
      2 C2         28.5745   64.9134    9.8537 C.3         1 GIM       0.1586
      3 N10        26.2048   64.1814   10.1737 N.pl3       1 GIM      -0.2404
      4 C3         27.9554   66.1670    9.1760 C.3         1 GIM       0.1253
      5 C4         26.7334   65.7613    8.3027 C.3         1 GIM       0.1183
      6 C5         25.6343   65.0178    9.1385 C.3         1 GIM       0.1196
      7 C6         24.6248   64.2646    8.2019 C.3         1 GIM       0.0773
      8 C7         26.4671   62.8876   11.9404 C.2         1 GIM      -0.0364
      9 C8         25.5334   63.4372   11.0754 C.2         1 GIM       0.0285
     10 N1         27.6831   63.3225   11.5824 N.2         1 GIM      -0.3367
     11 O3         28.9504   66.8126    8.3853 O.3         1 GIM      -0.3839
     12 O2         29.5776   65.3138   10.7811 O.3         1 GIM      -0.3699
     13 O4         26.1639   66.8985    7.6604 O.3         1 GIM      -0.3858
     14 O6         23.3523   64.9103    8.1940 O.3         1 GIM      -0.3918
     15 H1         29.0524   64.2871    9.1011 H           1 GIM       0.0858
     16 H2         27.6304   66.8719    9.9487 H           1 GIM       0.0675
     17 H3         27.1073   65.1019    7.5123 H           1 GIM       0.0654
     18 H4         25.0774   65.7897    9.6805 H           1 GIM       0.0704
     19 H5         24.4716   63.2305    8.5212 H           1 GIM       0.0589
     20 H6         24.9806   64.2357    7.1698 H           1 GIM       0.0589
     21 H7         26.2629   62.2792   12.7361 H           1 GIM       0.0408
     22 H8         24.5198   63.2991   11.1259 H           1 GIM       0.0796
     23 H9         28.5971   67.7090    8.2059 H           1 GIM       0.2103
     24 H10        30.1245   64.5111   10.9304 H           1 GIM       0.2138
     25 H11        25.7949   67.4458    8.3869 H           1 GIM       0.2100
     26 H12        22.8966   64.5478    7.4053 H           1 GIM       0.2095
@<TRIPOS>BOND
     1     1     2   1
     2     1     3   1
     3     1    10   2
     4     2     4   1
     5     2    12   1
     6     3     6   1
     7     3     9   1
     8     4     5   1
     9     4    11   1
    10     5     6   1
    11     5    13   1
    12     6     7   1
    13     7    14   1
    14     9     8   2
    15     8    10   1
    16     2    15   1
    17     4    16   1
    18     5    17   1
    19     6    18   1
    20     7    19   1
    21     7    20   1
    22     8    21   1
    23     9    22   1
    24    11    23   1
    25    12    24   1
    26    13    25   1
    27    14    26   1
@<TRIPOS>SUBSTRUCTURE
     1  GIM      1

