@<TRIPOS>MOLECULE
3d4z_ligand_023
    26    27
SMALL
GAST_HUCK
****
This file was generated by PARSER (from files_GN.cpp)

@<TRIPOS>ATOM
      1 C1         30.1915   66.5796    9.7848 C.2         1 GIM       0.1465
      2 C2         28.7357   66.8009    9.6689 C.3         1 GIM       0.1586
      3 N10        30.9676   66.0725    8.7969 N.pl3       1 GIM      -0.2404
      4 C3         28.1574   65.9649    8.4942 C.3         1 GIM       0.1253
      5 C4         29.0227   66.1328    7.2152 C.3         1 GIM       0.1183
      6 C5         30.5143   65.7176    7.4654 C.3         1 GIM       0.1196
      7 C6         31.4280   66.3371    6.3643 C.3         1 GIM       0.0773
      8 C7         32.1765   66.4479   10.6056 C.2         1 GIM      -0.0364
      9 C8         32.2025   65.9440    9.3143 C.2         1 GIM       0.0285
     10 N1         30.9232   66.8373   10.8809 N.2         1 GIM      -0.3367
     11 O3         26.8014   66.3331    8.2387 O.3         1 GIM      -0.3839
     12 O2         28.0723   66.4297   10.8766 O.3         1 GIM      -0.3699
     13 O4         28.4777   65.3596    6.1468 O.3         1 GIM      -0.3858
     14 O6         32.6631   65.6331    6.2689 O.3         1 GIM      -0.3918
     15 H1         28.5628   67.8653    9.4940 H           1 GIM       0.0858
     16 H2         28.1596   64.9079    8.7793 H           1 GIM       0.0675
     17 H3         28.9783   67.1868    6.9183 H           1 GIM       0.0654
     18 H4         30.5778   64.6267    7.3882 H           1 GIM       0.0704
     19 H5         31.6305   67.3872    6.5973 H           1 GIM       0.0589
     20 H6         30.9487   66.2865    5.3835 H           1 GIM       0.0589
     21 H7         32.9752   66.5107   11.2392 H           1 GIM       0.0408
     22 H8         33.0312   65.5657    8.8527 H           1 GIM       0.0796
     23 H9         26.8418   67.2542    7.9150 H           1 GIM       0.2103
     24 H10        28.3650   67.0852   11.5473 H           1 GIM       0.2138
     25 H11        27.6580   65.8266    5.8866 H           1 GIM       0.2100
     26 H12        33.3103   66.3003    5.9612 H           1 GIM       0.2095
@<TRIPOS>BOND
     1     1     2   1
     2     1     3   1
     3     1    10   2
     4     2     4   1
     5     2    12   1
     6     3     6   1
     7     3     9   1
     8     4     5   1
     9     4    11   1
    10     5     6   1
    11     5    13   1
    12     6     7   1
    13     7    14   1
    14     9     8   2
    15     8    10   1
    16     2    15   1
    17     4    16   1
    18     5    17   1
    19     6    18   1
    20     7    19   1
    21     7    20   1
    22     8    21   1
    23     9    22   1
    24    11    23   1
    25    12    24   1
    26    13    25   1
    27    14    26   1
@<TRIPOS>SUBSTRUCTURE
     1  GIM      1

