@<TRIPOS>MOLECULE
3d4z_ligand_006
    26    27
SMALL
GAST_HUCK
****
This file was generated by PARSER (from files_GN.cpp)

@<TRIPOS>ATOM
      1 C1         23.9061   66.5259   10.9491 C.2         1 GIM       0.1465
      2 C2         22.7887   67.4657   10.7452 C.3         1 GIM       0.1586
      3 N10        24.1468   65.4562   10.1527 N.pl3       1 GIM      -0.2404
      4 C3         21.6693   66.7861    9.9070 C.3         1 GIM       0.1253
      5 C4         22.2637   66.1191    8.6365 C.3         1 GIM       0.1183
      6 C5         23.3726   65.0655    8.9915 C.3         1 GIM       0.1196
      7 C6         24.2864   64.7398    7.7582 C.3         1 GIM       0.0773
      8 C7         25.6454   65.5498   11.7668 C.2         1 GIM      -0.0364
      9 C8         25.2126   64.8164   10.6717 C.2         1 GIM       0.0285
     10 N1         24.8262   66.5957   11.9293 N.2         1 GIM      -0.3367
     11 O3         20.6618   67.7443    9.5854 O.3         1 GIM      -0.3839
     12 O2         22.2841   67.9025   12.0055 O.3         1 GIM      -0.3699
     13 O4         21.2017   65.4977    7.9078 O.3         1 GIM      -0.3858
     14 O6         24.3366   63.3479    7.4596 O.3         1 GIM      -0.3918
     15 H1         23.1704   68.3378   10.2074 H           1 GIM       0.0858
     16 H2         21.1872   66.0100   10.5058 H           1 GIM       0.0675
     17 H3         22.6841   66.9189    8.0148 H           1 GIM       0.0654
     18 H4         22.8609   64.1437    9.2785 H           1 GIM       0.0704
     19 H5         25.3111   65.0704    7.9237 H           1 GIM       0.0589
     20 H6         23.9386   65.2480    6.8618 H           1 GIM       0.0589
     21 H7         26.4459   65.3147   12.3555 H           1 GIM       0.0408
     22 H8         25.6429   63.9561   10.3250 H           1 GIM       0.0796
     23 H9         21.1211   68.4339    9.0612 H           1 GIM       0.2103
     24 H10        21.6705   68.6387   11.7937 H           1 GIM       0.2138
     25 H11        21.6394   64.9598    7.2108 H           1 GIM       0.2100
     26 H12        23.4674   63.1536    7.0370 H           1 GIM       0.2095
@<TRIPOS>BOND
     1     1     2   1
     2     1     3   1
     3     1    10   2
     4     2     4   1
     5     2    12   1
     6     3     6   1
     7     3     9   1
     8     4     5   1
     9     4    11   1
    10     5     6   1
    11     5    13   1
    12     6     7   1
    13     7    14   1
    14     9     8   2
    15     8    10   1
    16     2    15   1
    17     4    16   1
    18     5    17   1
    19     6    18   1
    20     7    19   1
    21     7    20   1
    22     8    21   1
    23     9    22   1
    24    11    23   1
    25    12    24   1
    26    13    25   1
    27    14    26   1
@<TRIPOS>SUBSTRUCTURE
     1  GIM      1

