@<TRIPOS>MOLECULE
3d4z_ligand_021
    26    27
SMALL
GAST_HUCK
****
This file was generated by PARSER (from files_GN.cpp)

@<TRIPOS>ATOM
      1 C1         24.0813   66.1978   10.7178 C.2         1 GIM       0.1465
      2 C2         24.9497   66.7907    9.6911 C.3         1 GIM       0.1586
      3 N10        23.6137   64.9326   10.6733 N.pl3       1 GIM      -0.2404
      4 C3         24.8131   66.0284    8.3446 C.3         1 GIM       0.1253
      5 C4         24.8944   64.4947    8.5545 C.3         1 GIM       0.1183
      6 C5         23.8746   63.9660    9.6231 C.3         1 GIM       0.1196
      7 C6         24.3620   62.5959   10.1902 C.3         1 GIM       0.0773
      8 C7         22.8669   65.9695   12.4820 C.2         1 GIM      -0.0364
      9 C8         22.8187   64.7918   11.7520 C.2         1 GIM       0.0285
     10 N1         23.6476   66.8272   11.8225 N.2         1 GIM      -0.3367
     11 O3         25.8559   66.4222    7.4432 O.3         1 GIM      -0.3839
     12 O2         24.6363   68.1730    9.5128 O.3         1 GIM      -0.3699
     13 O4         24.7041   63.8210    7.3127 O.3         1 GIM      -0.3858
     14 O6         24.2909   61.5820    9.1912 O.3         1 GIM      -0.3918
     15 H1         25.9813   66.7222   10.0413 H           1 GIM       0.0858
     16 H2         23.8468   66.2771    7.8934 H           1 GIM       0.0675
     17 H3         25.9127   64.2795    8.8796 H           1 GIM       0.0654
     18 H4         22.9145   63.7981    9.1187 H           1 GIM       0.0704
     19 H5         23.7494   62.2787   11.0330 H           1 GIM       0.0589
     20 H6         25.3906   62.6715   10.5373 H           1 GIM       0.0589
     21 H7         22.3956   66.1500   13.3623 H           1 GIM       0.0408
     22 H8         22.2743   63.9558   12.0077 H           1 GIM       0.0796
     23 H9         26.2221   67.2614    7.7904 H           1 GIM       0.2103
     24 H10        23.7876   68.2083    9.0087 H           1 GIM       0.2138
     25 H11        23.7806   64.0318    7.0262 H           1 GIM       0.2100
     26 H12        23.3555   61.2521    9.2255 H           1 GIM       0.2095
@<TRIPOS>BOND
     1     1     2   1
     2     1     3   1
     3     1    10   2
     4     2     4   1
     5     2    12   1
     6     3     6   1
     7     3     9   1
     8     4     5   1
     9     4    11   1
    10     5     6   1
    11     5    13   1
    12     6     7   1
    13     7    14   1
    14     9     8   2
    15     8    10   1
    16     2    15   1
    17     4    16   1
    18     5    17   1
    19     6    18   1
    20     7    19   1
    21     7    20   1
    22     8    21   1
    23     9    22   1
    24    11    23   1
    25    12    24   1
    26    13    25   1
    27    14    26   1
@<TRIPOS>SUBSTRUCTURE
     1  GIM      1

