@<TRIPOS>MOLECULE
3d4z_ligand_016
    26    27
SMALL
GAST_HUCK
****
This file was generated by PARSER (from files_GN.cpp)

@<TRIPOS>ATOM
      1 C1         28.0265   65.7687    7.3249 C.2         1 GIM       0.1465
      2 C2         26.6348   65.5192    7.7504 C.3         1 GIM       0.1586
      3 N10        29.0638   65.9943    8.1653 N.pl3       1 GIM      -0.2404
      4 C3         26.4972   65.3184    9.2881 C.3         1 GIM       0.1253
      5 C4         27.5285   66.1438   10.1155 C.3         1 GIM       0.1183
      6 C5         29.0038   65.9695    9.6021 C.3         1 GIM       0.1196
      7 C6         29.7037   64.6781   10.1264 C.3         1 GIM       0.0773
      8 C7         29.7419   66.1490    6.0711 C.2         1 GIM      -0.0364
      9 C8         30.1431   66.2325    7.3962 C.2         1 GIM       0.0285
     10 N1         28.4377   65.8700    6.0500 N.2         1 GIM      -0.3367
     11 O3         26.6392   63.9330    9.5971 O.3         1 GIM      -0.3839
     12 O2         25.8196   66.6007    7.2990 O.3         1 GIM      -0.3699
     13 O4         27.1851   67.5304   10.0782 O.3         1 GIM      -0.3858
     14 O6         29.6397   64.5483   11.5461 O.3         1 GIM      -0.3918
     15 H1         26.2726   64.6236    7.2397 H           1 GIM       0.0858
     16 H2         25.4930   65.6074    9.6018 H           1 GIM       0.0675
     17 H3         27.4617   65.8493   11.1651 H           1 GIM       0.0654
     18 H4         29.5794   66.8208    9.9888 H           1 GIM       0.0704
     19 H5         30.7595   64.6784    9.8444 H           1 GIM       0.0589
     20 H6         29.2425   63.7883    9.6894 H           1 GIM       0.0589
     21 H7         30.3409   66.2824    5.2576 H           1 GIM       0.0408
     22 H8         31.0841   66.4405    7.7276 H           1 GIM       0.0796
     23 H9         26.2809   63.8305   10.5068 H           1 GIM       0.2103
     24 H10        26.3406   67.4051    7.4991 H           1 GIM       0.2138
     25 H11        27.5518   67.8723    9.2387 H           1 GIM       0.2100
     26 H12        30.4412   64.9932   11.8918 H           1 GIM       0.2095
@<TRIPOS>BOND
     1     1     2   1
     2     1     3   1
     3     1    10   2
     4     2     4   1
     5     2    12   1
     6     3     6   1
     7     3     9   1
     8     4     5   1
     9     4    11   1
    10     5     6   1
    11     5    13   1
    12     6     7   1
    13     7    14   1
    14     9     8   2
    15     8    10   1
    16     2    15   1
    17     4    16   1
    18     5    17   1
    19     6    18   1
    20     7    19   1
    21     7    20   1
    22     8    21   1
    23     9    22   1
    24    11    23   1
    25    12    24   1
    26    13    25   1
    27    14    26   1
@<TRIPOS>SUBSTRUCTURE
     1  GIM      1

