@<TRIPOS>MOLECULE
3d4z_ligand_037
    26    27
SMALL
GAST_HUCK
****
This file was generated by PARSER (from files_GN.cpp)

@<TRIPOS>ATOM
      1 C1         28.2614   67.3690    9.4099 C.2         1 GIM       0.1465
      2 C2         29.3685   66.7960    8.6140 C.3         1 GIM       0.1586
      3 N10        26.9541   67.0510    9.2652 N.pl3       1 GIM      -0.2404
      4 C3         28.8974   65.5425    7.8144 C.3         1 GIM       0.1253
      5 C4         27.4677   65.7165    7.2289 C.3         1 GIM       0.1183
      6 C5         26.4132   66.1098    8.3197 C.3         1 GIM       0.1196
      7 C6         25.7913   64.9036    9.0888 C.3         1 GIM       0.0773
      8 C7         27.1895   68.5722   10.8405 C.2         1 GIM      -0.0364
      9 C8         26.2732   67.7876   10.1576 C.2         1 GIM       0.0285
     10 N1         28.4144   68.3040   10.3666 N.2         1 GIM      -0.3367
     11 O3         28.9561   64.3945    8.6704 O.3         1 GIM      -0.3839
     12 O2         29.8789   67.8004    7.7344 O.3         1 GIM      -0.3699
     13 O4         27.5035   66.7074    6.2052 O.3         1 GIM      -0.3858
     14 O6         25.3449   63.8659    8.2207 O.3         1 GIM      -0.3918
     15 H1         30.1719   66.5082    9.2975 H           1 GIM       0.0858
     16 H2         29.5994   65.3442    6.9990 H           1 GIM       0.0675
     17 H3         27.1768   64.7927    6.7284 H           1 GIM       0.0654
     18 H4         25.5816   66.5962    7.7953 H           1 GIM       0.0704
     19 H5         24.9319   65.2420    9.6867 H           1 GIM       0.0589
     20 H6         26.5153   64.4740    9.7862 H           1 GIM       0.0589
     21 H7         26.9754   69.2497   11.5744 H           1 GIM       0.0408
     22 H8         25.2615   67.7835   10.3105 H           1 GIM       0.0796
     23 H9         28.4392   64.6387    9.4669 H           1 GIM       0.2103
     24 H10        30.8445   67.6291    7.6801 H           1 GIM       0.2138
     25 H11        27.7124   67.5513    6.6610 H           1 GIM       0.2100
     26 H12        24.6758   64.2960    7.6402 H           1 GIM       0.2095
@<TRIPOS>BOND
     1     1     2   1
     2     1     3   1
     3     1    10   2
     4     2     4   1
     5     2    12   1
     6     3     6   1
     7     3     9   1
     8     4     5   1
     9     4    11   1
    10     5     6   1
    11     5    13   1
    12     6     7   1
    13     7    14   1
    14     9     8   2
    15     8    10   1
    16     2    15   1
    17     4    16   1
    18     5    17   1
    19     6    18   1
    20     7    19   1
    21     7    20   1
    22     8    21   1
    23     9    22   1
    24    11    23   1
    25    12    24   1
    26    13    25   1
    27    14    26   1
@<TRIPOS>SUBSTRUCTURE
     1  GIM      1

