@<TRIPOS>MOLECULE
3d4z_ligand_001
    26    27
SMALL
GAST_HUCK
****
This file was generated by PARSER (from files_GN.cpp)

@<TRIPOS>ATOM
      1 C1         24.8407   66.2949    9.7964 C.2         1 GIM       0.1465
      2 C2         24.6591   64.8577    9.4953 C.3         1 GIM       0.1586
      3 N10        23.8912   67.2376    9.5917 N.pl3       1 GIM      -0.2404
      4 C3         23.4984   64.6564    8.4793 C.3         1 GIM       0.1253
      5 C4         22.2493   65.4804    8.9151 C.3         1 GIM       0.1183
      6 C5         22.5715   67.0053    9.0450 C.3         1 GIM       0.1196
      7 C6         21.4234   67.7433    9.8140 C.3         1 GIM       0.0773
      8 C7         25.7546   68.1782   10.3013 C.2         1 GIM      -0.0364
      9 C8         24.4628   68.4251    9.8656 C.2         1 GIM       0.0285
     10 N1         25.9745   66.8573   10.2472 N.2         1 GIM      -0.3367
     11 O3         23.1825   63.2673    8.3984 O.3         1 GIM      -0.3839
     12 O2         25.8627   64.2834    8.9811 O.3         1 GIM      -0.3699
     13 O4         21.1395   65.2700    8.0333 O.3         1 GIM      -0.3858
     14 O6         20.4153   68.1642    8.8985 O.3         1 GIM      -0.3918
     15 H1         24.4219   64.3495   10.4320 H           1 GIM       0.0858
     16 H2         23.8248   64.9838    7.4856 H           1 GIM       0.0675
     17 H3         21.9487   65.1053    9.9000 H           1 GIM       0.0654
     18 H4         22.6045   67.4107    8.0315 H           1 GIM       0.0704
     19 H5         21.7925   68.6378   10.3140 H           1 GIM       0.0589
     20 H6         20.9614   67.1041   10.5674 H           1 GIM       0.0589
     21 H7         26.4400   68.8853   10.5725 H           1 GIM       0.0408
     22 H8         24.0481   69.3530    9.7598 H           1 GIM       0.0796
     23 H9         22.8248   63.1431    7.4961 H           1 GIM       0.2103
     24 H10        26.1061   64.8305    8.2065 H           1 GIM       0.2138
     25 H11        21.4887   64.7688    7.2673 H           1 GIM       0.2100
     26 H12        20.8060   68.9526    8.4704 H           1 GIM       0.2095
@<TRIPOS>BOND
     1     1     2   1
     2     1     3   1
     3     1    10   2
     4     2     4   1
     5     2    12   1
     6     3     6   1
     7     3     9   1
     8     4     5   1
     9     4    11   1
    10     5     6   1
    11     5    13   1
    12     6     7   1
    13     7    14   1
    14     9     8   2
    15     8    10   1
    16     2    15   1
    17     4    16   1
    18     5    17   1
    19     6    18   1
    20     7    19   1
    21     7    20   1
    22     8    21   1
    23     9    22   1
    24    11    23   1
    25    12    24   1
    26    13    25   1
    27    14    26   1
@<TRIPOS>SUBSTRUCTURE
     1  GIM      1

