@<TRIPOS>MOLECULE
3d4z_ligand_022
    26    27
SMALL
GAST_HUCK
****
This file was generated by PARSER (from files_GN.cpp)

@<TRIPOS>ATOM
      1 C1         31.8871   65.7070    8.5357 C.2         1 GIM       0.1465
      2 C2         31.6524   65.6484    9.9909 C.3         1 GIM       0.1586
      3 N10        30.9349   65.5247    7.5971 N.pl3       1 GIM      -0.2404
      4 C3         30.1340   65.6101   10.3552 C.3         1 GIM       0.1253
      5 C4         29.2885   64.8197    9.3161 C.3         1 GIM       0.1183
      6 C5         29.5320   65.2963    7.8404 C.3         1 GIM       0.1196
      7 C6         28.6688   66.5264    7.4024 C.3         1 GIM       0.0773
      8 C7         32.8878   65.8062    6.6274 C.2         1 GIM      -0.0364
      9 C8         31.5343   65.6012    6.4023 C.2         1 GIM       0.0285
     10 N1         33.0907   65.8657    7.9513 N.2         1 GIM      -0.3367
     11 O3         29.6210   66.9347   10.4743 O.3         1 GIM      -0.3839
     12 O2         32.3134   64.4691   10.4425 O.3         1 GIM      -0.3699
     13 O4         29.5950   63.4279    9.4446 O.3         1 GIM      -0.3858
     14 O6         29.4375   67.7245    7.2784 O.3         1 GIM      -0.3918
     15 H1         32.1247   66.5087   10.4748 H           1 GIM       0.0858
     16 H2         30.0125   65.1320   11.3324 H           1 GIM       0.0675
     17 H3         28.2264   64.9013    9.5644 H           1 GIM       0.0654
     18 H4         29.2320   64.4603    7.2036 H           1 GIM       0.0704
     19 H5         27.8593   66.7095    8.1091 H           1 GIM       0.0589
     20 H6         28.1952   66.3341    6.4332 H           1 GIM       0.0589
     21 H7         33.6068   65.8862    5.9086 H           1 GIM       0.0408
     22 H8         31.0784   65.5317    5.4952 H           1 GIM       0.0796
     23 H9         30.0794   67.3152   11.2531 H           1 GIM       0.2103
     24 H10        32.1294   64.4216   11.4030 H           1 GIM       0.2138
     25 H11        30.5603   63.3452    9.2907 H           1 GIM       0.2100
     26 H12        28.9637   68.4020    7.7964 H           1 GIM       0.2095
@<TRIPOS>BOND
     1     1     2   1
     2     1     3   1
     3     1    10   2
     4     2     4   1
     5     2    12   1
     6     3     6   1
     7     3     9   1
     8     4     5   1
     9     4    11   1
    10     5     6   1
    11     5    13   1
    12     6     7   1
    13     7    14   1
    14     9     8   2
    15     8    10   1
    16     2    15   1
    17     4    16   1
    18     5    17   1
    19     6    18   1
    20     7    19   1
    21     7    20   1
    22     8    21   1
    23     9    22   1
    24    11    23   1
    25    12    24   1
    26    13    25   1
    27    14    26   1
@<TRIPOS>SUBSTRUCTURE
     1  GIM      1

