@<TRIPOS>MOLECULE
3d4z_ligand_012
    26    27
SMALL
GAST_HUCK
****
This file was generated by PARSER (from files_GN.cpp)

@<TRIPOS>ATOM
      1 C1         26.6120   64.9933    9.1179 C.2         1 GIM       0.1465
      2 C2         25.5275   65.3952    8.1995 C.3         1 GIM       0.1586
      3 N10        26.5044   64.0463   10.0775 N.pl3       1 GIM      -0.2404
      4 C3         24.2997   64.4417    8.2838 C.3         1 GIM       0.1253
      5 C4         24.0430   63.8902    9.7214 C.3         1 GIM       0.1183
      6 C5         25.3271   63.2692   10.3807 C.3         1 GIM       0.1196
      7 C6         25.4769   61.7604   10.0113 C.3         1 GIM       0.0773
      8 C7         28.5282   64.9242   10.1015 C.2         1 GIM      -0.0364
      9 C8         27.6928   63.9999   10.7108 C.2         1 GIM       0.0285
     10 N1         27.8436   65.5346    9.1257 N.2         1 GIM      -0.3367
     11 O3         24.4923   63.3666    7.3648 O.3         1 GIM      -0.3839
     12 O2         25.1474   66.7305    8.5176 O.3         1 GIM      -0.3699
     13 O4         23.5729   64.9592   10.5460 O.3         1 GIM      -0.3858
     14 O6         26.6871   61.1700   10.4554 O.3         1 GIM      -0.3918
     15 H1         25.9161   65.3997    7.1796 H           1 GIM       0.0858
     16 H2         23.4149   64.9861    7.9426 H           1 GIM       0.0675
     17 H3         23.2362   63.1512    9.6829 H           1 GIM       0.0654
     18 H4         25.1864   63.3082   11.4671 H           1 GIM       0.0704
     19 H5         25.4082   61.6060    8.9317 H           1 GIM       0.0589
     20 H6         24.6694   61.2005   10.4854 H           1 GIM       0.0589
     21 H7         29.5002   65.1223   10.3595 H           1 GIM       0.0408
     22 H8         27.9492   63.4032   11.4981 H           1 GIM       0.0796
     23 H9         23.6298   63.2394    6.9139 H           1 GIM       0.2103
     24 H10        25.8907   67.2968    8.2237 H           1 GIM       0.2138
     25 H11        22.5968   64.9561   10.4447 H           1 GIM       0.2100
     26 H12        27.3686   61.4772    9.8256 H           1 GIM       0.2095
@<TRIPOS>BOND
     1     1     2   1
     2     1     3   1
     3     1    10   2
     4     2     4   1
     5     2    12   1
     6     3     6   1
     7     3     9   1
     8     4     5   1
     9     4    11   1
    10     5     6   1
    11     5    13   1
    12     6     7   1
    13     7    14   1
    14     9     8   2
    15     8    10   1
    16     2    15   1
    17     4    16   1
    18     5    17   1
    19     6    18   1
    20     7    19   1
    21     7    20   1
    22     8    21   1
    23     9    22   1
    24    11    23   1
    25    12    24   1
    26    13    25   1
    27    14    26   1
@<TRIPOS>SUBSTRUCTURE
     1  GIM      1

