@<TRIPOS>MOLECULE
3d4z_ligand_047
    26    27
SMALL
GAST_HUCK
****
This file was generated by PARSER (from files_GN.cpp)

@<TRIPOS>ATOM
      1 C1         25.8236   64.2236   12.5953 C.2         1 GIM       0.1465
      2 C2         26.1586   62.7862   12.5050 C.3         1 GIM       0.1586
      3 N10        26.7269   65.2035   12.8188 N.pl3       1 GIM      -0.2404
      4 C3         27.5312   62.5037   13.1781 C.3         1 GIM       0.1253
      5 C4         28.5935   63.5326   12.7048 C.3         1 GIM       0.1183
      6 C5         28.1532   65.0095   12.9894 C.3         1 GIM       0.1196
      7 C6         28.9886   65.9865   12.1082 C.3         1 GIM       0.0773
      8 C7         24.6980   66.0607   12.6809 C.2         1 GIM      -0.0364
      9 C8         26.0352   66.3557   12.9045 C.2         1 GIM       0.0285
     10 N1         24.5847   64.7403   12.4926 N.2         1 GIM      -0.3367
     11 O3         27.9675   61.1776   12.8713 O.3         1 GIM      -0.3839
     12 O2         25.1500   62.0039   13.1420 O.3         1 GIM      -0.3699
     13 O4         29.8489   63.2466   13.3214 O.3         1 GIM      -0.3858
     14 O6         29.4202   67.1212   12.8549 O.3         1 GIM      -0.3918
     15 H1         26.1986   62.5040   11.4496 H           1 GIM       0.0858
     16 H2         27.4230   62.5802   14.2662 H           1 GIM       0.0675
     17 H3         28.7246   63.3933   11.6279 H           1 GIM       0.0654
     18 H4         28.3726   65.2250   14.0388 H           1 GIM       0.0704
     19 H5         28.3995   66.3123   11.2457 H           1 GIM       0.0589
     20 H6         29.8871   65.4929   11.7361 H           1 GIM       0.0589
     21 H7         23.9261   66.7276   12.6887 H           1 GIM       0.0408
     22 H8         26.4076   67.2875   13.0972 H           1 GIM       0.0796
     23 H9         28.2673   60.8031   13.7270 H           1 GIM       0.2103
     24 H10        24.4045   61.9723   12.5060 H           1 GIM       0.2138
     25 H11        29.6939   63.2938   14.2870 H           1 GIM       0.2100
     26 H12        29.8820   67.6935   12.2048 H           1 GIM       0.2095
@<TRIPOS>BOND
     1     1     2   1
     2     1     3   1
     3     1    10   2
     4     2     4   1
     5     2    12   1
     6     3     6   1
     7     3     9   1
     8     4     5   1
     9     4    11   1
    10     5     6   1
    11     5    13   1
    12     6     7   1
    13     7    14   1
    14     9     8   2
    15     8    10   1
    16     2    15   1
    17     4    16   1
    18     5    17   1
    19     6    18   1
    20     7    19   1
    21     7    20   1
    22     8    21   1
    23     9    22   1
    24    11    23   1
    25    12    24   1
    26    13    25   1
    27    14    26   1
@<TRIPOS>SUBSTRUCTURE
     1  GIM      1

