@<TRIPOS>MOLECULE
3d4z_ligand_029
    26    27
SMALL
GAST_HUCK
****
This file was generated by PARSER (from files_GN.cpp)

@<TRIPOS>ATOM
      1 C1         23.8717   62.7815   11.0113 C.2         1 GIM       0.1465
      2 C2         24.0637   62.4420    9.5874 C.3         1 GIM       0.1586
      3 N10        23.7369   64.0422   11.4854 N.pl3       1 GIM      -0.2404
      4 C3         24.5839   63.6775    8.8034 C.3         1 GIM       0.1253
      5 C4         23.7859   64.9646    9.1506 C.3         1 GIM       0.1183
      6 C5         23.7970   65.2528   10.6922 C.3         1 GIM       0.1196
      7 C6         22.6952   66.2900   11.0689 C.3         1 GIM       0.0773
      8 C7         23.7128   62.5933   13.1534 C.2         1 GIM      -0.0364
      9 C8         23.6677   63.9399   12.8264 C.2         1 GIM       0.0285
     10 N1         23.8450   61.8928   12.0208 N.2         1 GIM      -0.3367
     11 O3         24.5232   63.3978    7.4063 O.3         1 GIM      -0.3839
     12 O2         24.9960   61.3686    9.4408 O.3         1 GIM      -0.3699
     13 O4         24.3315   66.0825    8.4478 O.3         1 GIM      -0.3858
     14 O6         21.4862   66.1205   10.3329 O.3         1 GIM      -0.3918
     15 H1         23.1041   62.1224    9.1751 H           1 GIM       0.0858
     16 H2         25.6340   63.8438    9.0605 H           1 GIM       0.0675
     17 H3         22.7581   64.8198    8.8048 H           1 GIM       0.0654
     18 H4         24.7607   65.7141   10.9330 H           1 GIM       0.0704
     19 H5         23.0607   67.3011   10.8780 H           1 GIM       0.0589
     20 H6         22.4605   66.2267   12.1320 H           1 GIM       0.0589
     21 H7         23.6759   62.1999   14.0949 H           1 GIM       0.0408
     22 H8         23.6050   64.7057   13.4997 H           1 GIM       0.0796
     23 H9         23.5843   63.5186    7.1402 H           1 GIM       0.2103
     24 H10        24.4680   60.5398    9.4545 H           1 GIM       0.2138
     25 H11        24.6339   65.7269    7.5862 H           1 GIM       0.2100
     26 H12        21.2338   65.1794   10.4284 H           1 GIM       0.2095
@<TRIPOS>BOND
     1     1     2   1
     2     1     3   1
     3     1    10   2
     4     2     4   1
     5     2    12   1
     6     3     6   1
     7     3     9   1
     8     4     5   1
     9     4    11   1
    10     5     6   1
    11     5    13   1
    12     6     7   1
    13     7    14   1
    14     9     8   2
    15     8    10   1
    16     2    15   1
    17     4    16   1
    18     5    17   1
    19     6    18   1
    20     7    19   1
    21     7    20   1
    22     8    21   1
    23     9    22   1
    24    11    23   1
    25    12    24   1
    26    13    25   1
    27    14    26   1
@<TRIPOS>SUBSTRUCTURE
     1  GIM      1

