@<TRIPOS>MOLECULE
3d4z_ligand_043
    26    27
SMALL
GAST_HUCK
****
This file was generated by PARSER (from files_GN.cpp)

@<TRIPOS>ATOM
      1 C1         22.0605   65.6529   10.7405 C.2         1 GIM       0.1465
      2 C2         22.7763   65.0371   11.8775 C.3         1 GIM       0.1586
      3 N10        22.6042   65.9199    9.5317 N.pl3       1 GIM      -0.2404
      4 C3         24.1984   64.5240   11.4883 C.3         1 GIM       0.1253
      5 C4         24.8859   65.3774   10.3792 C.3         1 GIM       0.1183
      6 C5         23.9677   65.6594    9.1387 C.3         1 GIM       0.1196
      7 C6         24.0172   64.5537    8.0453 C.3         1 GIM       0.0773
      8 C7         20.4842   66.5263    9.5521 C.2         1 GIM      -0.0364
      9 C8         21.6313   66.4604    8.7744 C.2         1 GIM       0.0285
     10 N1         20.7678   66.0282   10.7630 N.2         1 GIM      -0.3367
     11 O3         24.1340   63.1630   11.0615 O.3         1 GIM      -0.3839
     12 O2         22.8415   65.9777   12.9504 O.3         1 GIM      -0.3699
     13 O4         25.3135   66.6185   10.9453 O.3         1 GIM      -0.3858
     14 O6         23.2561   63.4011    8.3936 O.3         1 GIM      -0.3918
     15 H1         22.1791   64.1937   12.2345 H           1 GIM       0.0858
     16 H2         24.8355   64.5307   12.3778 H           1 GIM       0.0675
     17 H3         25.8002   64.8706   10.0580 H           1 GIM       0.0654
     18 H4         24.3540   66.5690    8.6642 H           1 GIM       0.0704
     19 H5         25.0471   64.2506    7.8457 H           1 GIM       0.0589
     20 H6         23.6068   64.9556    7.1162 H           1 GIM       0.0589
     21 H7         19.5762   66.8903    9.2571 H           1 GIM       0.0408
     22 H8         21.7120   66.7722    7.8032 H           1 GIM       0.0796
     23 H9         23.8667   62.6517   11.8556 H           1 GIM       0.2103
     24 H10        23.4928   66.6576   12.6792 H           1 GIM       0.2138
     25 H11        24.5525   67.2290   10.8557 H           1 GIM       0.2100
     26 H12        22.7416   63.1935    7.5837 H           1 GIM       0.2095
@<TRIPOS>BOND
     1     1     2   1
     2     1     3   1
     3     1    10   2
     4     2     4   1
     5     2    12   1
     6     3     6   1
     7     3     9   1
     8     4     5   1
     9     4    11   1
    10     5     6   1
    11     5    13   1
    12     6     7   1
    13     7    14   1
    14     9     8   2
    15     8    10   1
    16     2    15   1
    17     4    16   1
    18     5    17   1
    19     6    18   1
    20     7    19   1
    21     7    20   1
    22     8    21   1
    23     9    22   1
    24    11    23   1
    25    12    24   1
    26    13    25   1
    27    14    26   1
@<TRIPOS>SUBSTRUCTURE
     1  GIM      1

