@<TRIPOS>MOLECULE
3d4z_ligand_038
    26    27
SMALL
GAST_HUCK
****
This file was generated by PARSER (from files_GN.cpp)

@<TRIPOS>ATOM
      1 C1         25.1788   64.0336   15.9441 C.2         1 GIM       0.1465
      2 C2         26.4679   63.5132   15.4427 C.3         1 GIM       0.1586
      3 N10        24.1573   64.4594   15.1692 N.pl3       1 GIM      -0.2404
      4 C3         26.4689   63.3151   13.8946 C.3         1 GIM       0.1253
      5 C4         25.5626   64.3205   13.1262 C.3         1 GIM       0.1183
      6 C5         24.1210   64.4672   13.7290 C.3         1 GIM       0.1196
      7 C6         23.0821   63.4358   13.1921 C.3         1 GIM       0.0773
      8 C7         23.6405   64.7246   17.2925 C.2         1 GIM      -0.0364
      9 C8         23.1907   64.8946   15.9941 C.2         1 GIM       0.0285
     10 N1         24.8695   64.1929   17.2455 N.2         1 GIM      -0.3367
     11 O3         26.0464   61.9924   13.5783 O.3         1 GIM      -0.3839
     12 O2         27.4986   64.4061   15.8618 O.3         1 GIM      -0.3699
     13 O4         26.1867   65.6070   13.1419 O.3         1 GIM      -0.3858
     14 O6         23.5168   62.0799   13.2929 O.3         1 GIM      -0.3918
     15 H1         26.6630   62.5601   15.9355 H           1 GIM       0.0858
     16 H2         27.4925   63.4153   13.5243 H           1 GIM       0.0675
     17 H3         25.4929   64.0174   12.0764 H           1 GIM       0.0654
     18 H4         23.7484   65.4548   13.4183 H           1 GIM       0.0704
     19 H5         22.8610   63.6461   12.1402 H           1 GIM       0.0589
     20 H6         22.1461   63.5333   13.7495 H           1 GIM       0.0589
     21 H7         23.1322   64.9798   18.1377 H           1 GIM       0.0408
     22 H8         22.2940   65.2953   15.7167 H           1 GIM       0.0796
     23 H9         26.8110   61.4208   13.8269 H           1 GIM       0.2103
     24 H10        28.2130   63.8230   16.2045 H           1 GIM       0.2138
     25 H11        26.9616   65.5263   12.5464 H           1 GIM       0.2100
     26 H12        23.7796   61.9488   14.2317 H           1 GIM       0.2095
@<TRIPOS>BOND
     1     1     2   1
     2     1     3   1
     3     1    10   2
     4     2     4   1
     5     2    12   1
     6     3     6   1
     7     3     9   1
     8     4     5   1
     9     4    11   1
    10     5     6   1
    11     5    13   1
    12     6     7   1
    13     7    14   1
    14     9     8   2
    15     8    10   1
    16     2    15   1
    17     4    16   1
    18     5    17   1
    19     6    18   1
    20     7    19   1
    21     7    20   1
    22     8    21   1
    23     9    22   1
    24    11    23   1
    25    12    24   1
    26    13    25   1
    27    14    26   1
@<TRIPOS>SUBSTRUCTURE
     1  GIM      1

