@<TRIPOS>MOLECULE
3d4z_ligand_011
    26    27
SMALL
GAST_HUCK
****
This file was generated by PARSER (from files_GN.cpp)

@<TRIPOS>ATOM
      1 C1         26.4967   63.9528   10.0635 C.2         1 GIM       0.1465
      2 C2         26.0525   62.6578   10.6072 C.3         1 GIM       0.1586
      3 N10        25.8037   64.6663    9.1468 N.pl3       1 GIM      -0.2404
      4 C3         25.0704   61.9658    9.6340 C.3         1 GIM       0.1253
      5 C4         23.9617   62.9439    9.1428 C.3         1 GIM       0.1183
      6 C5         24.5280   64.2967    8.5707 C.3         1 GIM       0.1196
      7 C6         23.5088   65.4630    8.7693 C.3         1 GIM       0.0773
      8 C7         27.6848   65.7040    9.6550 C.2         1 GIM      -0.0364
      9 C8         26.5438   65.7576    8.8716 C.2         1 GIM       0.0285
     10 N1         27.6422   64.5836   10.3868 N.2         1 GIM      -0.3367
     11 O3         24.4772   60.8555   10.3091 O.3         1 GIM      -0.3839
     12 O2         27.1614   61.7900   10.8497 O.3         1 GIM      -0.3699
     13 O4         23.1772   62.2531    8.1620 O.3         1 GIM      -0.3858
     14 O6         22.1948   65.1552    8.3002 O.3         1 GIM      -0.3918
     15 H1         25.5581   62.8501   11.5619 H           1 GIM       0.0858
     16 H2         25.6270   61.5871    8.7734 H           1 GIM       0.0675
     17 H3         23.3139   63.1558    9.9983 H           1 GIM       0.0654
     18 H4         24.6891   64.1725    7.4974 H           1 GIM       0.0704
     19 H5         23.8460   66.3585    8.2438 H           1 GIM       0.0589
     20 H6         23.4273   65.7053    9.8345 H           1 GIM       0.0589
     21 H7         28.4338   66.3991    9.6745 H           1 GIM       0.0408
     22 H8         26.3131   66.5044    8.2157 H           1 GIM       0.0796
     23 H9         24.3784   60.1454    9.6295 H           1 GIM       0.2103
     24 H10        27.8386   62.0243   10.1786 H           1 GIM       0.2138
     25 H11        22.8159   62.9477    7.5599 H           1 GIM       0.2100
     26 H12        22.3024   64.9302    7.3472 H           1 GIM       0.2095
@<TRIPOS>BOND
     1     1     2   1
     2     1     3   1
     3     1    10   2
     4     2     4   1
     5     2    12   1
     6     3     6   1
     7     3     9   1
     8     4     5   1
     9     4    11   1
    10     5     6   1
    11     5    13   1
    12     6     7   1
    13     7    14   1
    14     9     8   2
    15     8    10   1
    16     2    15   1
    17     4    16   1
    18     5    17   1
    19     6    18   1
    20     7    19   1
    21     7    20   1
    22     8    21   1
    23     9    22   1
    24    11    23   1
    25    12    24   1
    26    13    25   1
    27    14    26   1
@<TRIPOS>SUBSTRUCTURE
     1  GIM      1

