@<TRIPOS>MOLECULE
3d4z_ligand_046
    26    27
SMALL
GAST_HUCK
****
This file was generated by PARSER (from files_GN.cpp)

@<TRIPOS>ATOM
      1 C1         26.4299   64.8452   10.1082 C.2         1 GIM       0.1465
      2 C2         27.2968   64.2699   11.1578 C.3         1 GIM       0.1586
      3 N10        25.5670   64.1216    9.3594 N.pl3       1 GIM      -0.2404
      4 C3         27.4877   62.7464   10.9340 C.3         1 GIM       0.1253
      5 C4         26.1306   62.0381   10.6521 C.3         1 GIM       0.1183
      6 C5         25.3348   62.6983    9.4758 C.3         1 GIM       0.1196
      7 C6         23.8078   62.3956    9.5914 C.3         1 GIM       0.0773
      8 C7         25.5294   66.2395    8.7332 C.2         1 GIM      -0.0364
      9 C8         25.0260   64.9756    8.4689 C.2         1 GIM       0.0285
     10 N1         26.3989   66.1398    9.7480 N.2         1 GIM      -0.3367
     11 O3         28.1256   62.1720   12.0719 O.3         1 GIM      -0.3839
     12 O2         28.5731   64.9138   11.1533 O.3         1 GIM      -0.3699
     13 O4         26.3955   60.6600   10.3718 O.3         1 GIM      -0.3858
     14 O6         23.5331   61.0159    9.7971 O.3         1 GIM      -0.3918
     15 H1         26.8236   64.4516   12.1256 H           1 GIM       0.0858
     16 H2         28.1499   62.5895   10.0792 H           1 GIM       0.0675
     17 H3         25.5382   62.0875   11.5707 H           1 GIM       0.0654
     18 H4         25.6843   62.2453    8.5482 H           1 GIM       0.0704
     19 H5         23.2901   62.6929    8.6791 H           1 GIM       0.0589
     20 H6         23.3848   62.9608   10.4249 H           1 GIM       0.0589
     21 H7         25.2923   67.0992    8.2355 H           1 GIM       0.0408
     22 H8         24.3548   64.7491    7.7326 H           1 GIM       0.0796
     23 H9         27.4907   62.2783   12.8122 H           1 GIM       0.2103
     24 H10        28.4249   65.7885   11.5750 H           1 GIM       0.2138
     25 H11        25.6021   60.3152    9.9093 H           1 GIM       0.2100
     26 H12        23.4622   60.6298    8.8980 H           1 GIM       0.2095
@<TRIPOS>BOND
     1     1     2   1
     2     1     3   1
     3     1    10   2
     4     2     4   1
     5     2    12   1
     6     3     6   1
     7     3     9   1
     8     4     5   1
     9     4    11   1
    10     5     6   1
    11     5    13   1
    12     6     7   1
    13     7    14   1
    14     9     8   2
    15     8    10   1
    16     2    15   1
    17     4    16   1
    18     5    17   1
    19     6    18   1
    20     7    19   1
    21     7    20   1
    22     8    21   1
    23     9    22   1
    24    11    23   1
    25    12    24   1
    26    13    25   1
    27    14    26   1
@<TRIPOS>SUBSTRUCTURE
     1  GIM      1

