@<TRIPOS>MOLECULE
3d4z_ligand_018
    26    27
SMALL
GAST_HUCK
****
This file was generated by PARSER (from files_GN.cpp)

@<TRIPOS>ATOM
      1 C1         23.4771   64.5754   10.6007 C.2         1 GIM       0.1465
      2 C2         23.5412   64.4065    9.1356 C.3         1 GIM       0.1586
      3 N10        24.1189   63.7734   11.4825 N.pl3       1 GIM      -0.2404
      4 C3         23.9483   62.9467    8.7917 C.3         1 GIM       0.1253
      5 C4         25.1978   62.5071    9.5997 C.3         1 GIM       0.1183
      6 C5         24.9728   62.6541   11.1504 C.3         1 GIM       0.1196
      7 C6         26.3362   62.7463   11.9022 C.3         1 GIM       0.0773
      8 C7         22.9194   65.2909   12.5528 C.2         1 GIM      -0.0364
      9 C8         23.7544   64.1885   12.7100 C.2         1 GIM       0.0285
     10 N1         22.7589   65.5133   11.2415 N.2         1 GIM      -0.3367
     11 O3         24.2227   62.8256    7.4014 O.3         1 GIM      -0.3839
     12 O2         22.2703   64.7121    8.5517 O.3         1 GIM      -0.3699
     13 O4         25.5608   61.1680    9.2487 O.3         1 GIM      -0.3858
     14 O6         27.2263   61.6760   11.5827 O.3         1 GIM      -0.3918
     15 H1         24.2694   65.1095    8.7361 H           1 GIM       0.0858
     16 H2         23.1259   62.2650    9.0343 H           1 GIM       0.0675
     17 H3         26.0293   63.1492    9.2934 H           1 GIM       0.0654
     18 H4         24.4493   61.7498   11.4921 H           1 GIM       0.0704
     19 H5         26.1579   62.6992   12.9813 H           1 GIM       0.0589
     20 H6         26.8290   63.6904   11.6779 H           1 GIM       0.0589
     21 H7         22.4811   65.8288   13.3062 H           1 GIM       0.0408
     22 H8         24.0368   63.7877   13.6031 H           1 GIM       0.0796
     23 H9         23.3643   62.9991    6.9502 H           1 GIM       0.2103
     24 H10        22.3928   64.6271    7.5804 H           1 GIM       0.2138
     25 H11        24.7940   60.6048    9.4881 H           1 GIM       0.2100
     26 H12        27.7387   62.0053   10.7995 H           1 GIM       0.2095
@<TRIPOS>BOND
     1     1     2   1
     2     1     3   1
     3     1    10   2
     4     2     4   1
     5     2    12   1
     6     3     6   1
     7     3     9   1
     8     4     5   1
     9     4    11   1
    10     5     6   1
    11     5    13   1
    12     6     7   1
    13     7    14   1
    14     9     8   2
    15     8    10   1
    16     2    15   1
    17     4    16   1
    18     5    17   1
    19     6    18   1
    20     7    19   1
    21     7    20   1
    22     8    21   1
    23     9    22   1
    24    11    23   1
    25    12    24   1
    26    13    25   1
    27    14    26   1
@<TRIPOS>SUBSTRUCTURE
     1  GIM      1

