@<TRIPOS>MOLECULE
3d4z_ligand_036
    26    27
SMALL
GAST_HUCK
****
This file was generated by PARSER (from files_GN.cpp)

@<TRIPOS>ATOM
      1 C1         30.4926   65.9424    9.2301 C.2         1 GIM       0.1465
      2 C2         29.4185   65.8820   10.2483 C.3         1 GIM       0.1586
      3 N10        30.2901   65.7588    7.9050 N.pl3       1 GIM      -0.2404
      4 C3         28.1879   65.1136    9.6998 C.3         1 GIM       0.1253
      5 C4         27.8055   65.6205    8.2845 C.3         1 GIM       0.1183
      6 C5         29.0081   65.4981    7.2808 C.3         1 GIM       0.1196
      7 C6         28.7855   66.3764    6.0170 C.3         1 GIM       0.0773
      8 C7         32.4393   66.0738    8.3064 C.2         1 GIM      -0.0364
      9 C8         31.5030   65.8047    7.3185 C.2         1 GIM       0.0285
     10 N1         31.7985   66.1564    9.4786 N.2         1 GIM      -0.3367
     11 O3         27.0938   65.2655   10.6064 O.3         1 GIM      -0.3839
     12 O2         29.8450   65.1909   11.4192 O.3         1 GIM      -0.3699
     13 O4         26.6793   64.8773    7.8196 O.3         1 GIM      -0.3858
     14 O6         28.9005   67.7583    6.3193 O.3         1 GIM      -0.3918
     15 H1         29.1392   66.9042   10.5193 H           1 GIM       0.0858
     16 H2         28.4328   64.0480    9.6450 H           1 GIM       0.0675
     17 H3         27.4976   66.6639    8.3918 H           1 GIM       0.0654
     18 H4         29.0440   64.4644    6.9312 H           1 GIM       0.0704
     19 H5         27.8041   66.1905    5.5827 H           1 GIM       0.0589
     20 H6         29.5324   66.1282    5.2591 H           1 GIM       0.0589
     21 H7         33.4467   66.1750    8.1678 H           1 GIM       0.0408
     22 H8         31.7149   65.6747    6.3266 H           1 GIM       0.0796
     23 H9         26.3773   64.6976   10.2512 H           1 GIM       0.2103
     24 H10        30.6597   65.6380   11.7191 H           1 GIM       0.2138
     25 H11        26.2184   65.4694    7.1889 H           1 GIM       0.2100
     26 H12        28.0825   67.9928    6.8010 H           1 GIM       0.2095
@<TRIPOS>BOND
     1     1     2   1
     2     1     3   1
     3     1    10   2
     4     2     4   1
     5     2    12   1
     6     3     6   1
     7     3     9   1
     8     4     5   1
     9     4    11   1
    10     5     6   1
    11     5    13   1
    12     6     7   1
    13     7    14   1
    14     9     8   2
    15     8    10   1
    16     2    15   1
    17     4    16   1
    18     5    17   1
    19     6    18   1
    20     7    19   1
    21     7    20   1
    22     8    21   1
    23     9    22   1
    24    11    23   1
    25    12    24   1
    26    13    25   1
    27    14    26   1
@<TRIPOS>SUBSTRUCTURE
     1  GIM      1

