@<TRIPOS>MOLECULE
3d4z_ligand_009
    26    27
SMALL
GAST_HUCK
****
This file was generated by PARSER (from files_GN.cpp)

@<TRIPOS>ATOM
      1 C1         28.9434   65.7614    8.1278 C.2         1 GIM       0.1465
      2 C2         29.2749   66.2469    6.7792 C.3         1 GIM       0.1586
      3 N10        29.8550   65.4090    9.0593 N.pl3       1 GIM      -0.2404
      4 C3         30.7579   65.9493    6.4138 C.3         1 GIM       0.1253
      5 C4         31.7266   66.2321    7.5985 C.3         1 GIM       0.1183
      6 C5         31.2913   65.4633    8.8992 C.3         1 GIM       0.1196
      7 C6         32.0195   66.0312   10.1643 C.3         1 GIM       0.0773
      8 C7         27.8095   65.1008    9.8333 C.2         1 GIM      -0.0364
      9 C8         29.1576   64.9436   10.1155 C.2         1 GIM       0.0285
     10 N1         27.6913   65.6031    8.5993 N.2         1 GIM      -0.3367
     11 O3         31.0969   66.7397    5.2661 O.3         1 GIM      -0.3839
     12 O2         28.4060   65.6293    5.8294 O.3         1 GIM      -0.3699
     13 O4         33.0590   65.8436    7.2558 O.3         1 GIM      -0.3858
     14 O6         32.8429   65.0479   10.7837 O.3         1 GIM      -0.3918
     15 H1         29.0829   67.3225    6.7598 H           1 GIM       0.0858
     16 H2         30.8486   64.8876    6.1473 H           1 GIM       0.0675
     17 H3         31.7127   67.3120    7.7943 H           1 GIM       0.0654
     18 H4         31.5958   64.4201    8.7737 H           1 GIM       0.0704
     19 H5         31.2984   66.3904   10.9054 H           1 GIM       0.0589
     20 H6         32.6717   66.8736    9.9153 H           1 GIM       0.0589
     21 H7         27.0325   64.8643   10.4509 H           1 GIM       0.0408
     22 H8         29.5438   64.5772   10.9849 H           1 GIM       0.0796
     23 H9         32.0719   66.8228    5.2615 H           1 GIM       0.2103
     24 H10        28.6318   66.0308    4.9662 H           1 GIM       0.2138
     25 H11        33.4505   66.5925    6.7617 H           1 GIM       0.2100
     26 H12        32.2911   64.2395   10.8664 H           1 GIM       0.2095
@<TRIPOS>BOND
     1     1     2   1
     2     1     3   1
     3     1    10   2
     4     2     4   1
     5     2    12   1
     6     3     6   1
     7     3     9   1
     8     4     5   1
     9     4    11   1
    10     5     6   1
    11     5    13   1
    12     6     7   1
    13     7    14   1
    14     9     8   2
    15     8    10   1
    16     2    15   1
    17     4    16   1
    18     5    17   1
    19     6    18   1
    20     7    19   1
    21     7    20   1
    22     8    21   1
    23     9    22   1
    24    11    23   1
    25    12    24   1
    26    13    25   1
    27    14    26   1
@<TRIPOS>SUBSTRUCTURE
     1  GIM      1

