@<TRIPOS>MOLECULE
3d4z_ligand_013
    26    27
SMALL
GAST_HUCK
****
This file was generated by PARSER (from files_GN.cpp)

@<TRIPOS>ATOM
      1 C1         26.7559   61.4738    9.9038 C.2         1 GIM       0.1465
      2 C2         26.9177   62.5949   10.8526 C.3         1 GIM       0.1586
      3 N10        25.5735   61.1364    9.3342 N.pl3       1 GIM      -0.2404
      4 C3         25.5630   62.9166   11.5337 C.3         1 GIM       0.1253
      5 C4         24.4428   63.0712   10.4726 C.3         1 GIM       0.1183
      6 C5         24.3012   61.7871    9.5786 C.3         1 GIM       0.1196
      7 C6         23.5509   62.1387    8.2612 C.3         1 GIM       0.0773
      8 C7         27.1620   59.7346    8.6958 C.2         1 GIM      -0.0364
      9 C8         25.8131   60.0421    8.5867 C.2         1 GIM       0.0285
     10 N1         27.7264   60.6304    9.5160 N.2         1 GIM      -0.3367
     11 O3         25.7001   64.1153   12.2980 O.3         1 GIM      -0.3839
     12 O2         27.8855   62.2934   11.8566 O.3         1 GIM      -0.3699
     13 O4         23.2223   63.3733   11.1482 O.3         1 GIM      -0.3858
     14 O6         24.3461   62.9581    7.4113 O.3         1 GIM      -0.3918
     15 H1         27.2612   63.4681   10.2934 H           1 GIM       0.0858
     16 H2         25.2974   62.1048   12.2195 H           1 GIM       0.0675
     17 H3         24.6991   63.9293    9.8440 H           1 GIM       0.0654
     18 H4         23.6873   61.0680   10.1310 H           1 GIM       0.0704
     19 H5         22.6235   62.6701    8.4778 H           1 GIM       0.0589
     20 H6         23.2987   61.2285    7.7157 H           1 GIM       0.0589
     21 H7         27.6383   58.9534    8.2442 H           1 GIM       0.0408
     22 H8         25.1392   59.5135    8.0326 H           1 GIM       0.0796
     23 H9         24.8516   64.2247   12.7771 H           1 GIM       0.2103
     24 H10        28.7516   62.3415   11.4018 H           1 GIM       0.2138
     25 H11        22.6166   63.7199   10.4619 H           1 GIM       0.2100
     26 H12        23.7042   63.3952    6.8130 H           1 GIM       0.2095
@<TRIPOS>BOND
     1     1     2   1
     2     1     3   1
     3     1    10   2
     4     2     4   1
     5     2    12   1
     6     3     6   1
     7     3     9   1
     8     4     5   1
     9     4    11   1
    10     5     6   1
    11     5    13   1
    12     6     7   1
    13     7    14   1
    14     9     8   2
    15     8    10   1
    16     2    15   1
    17     4    16   1
    18     5    17   1
    19     6    18   1
    20     7    19   1
    21     7    20   1
    22     8    21   1
    23     9    22   1
    24    11    23   1
    25    12    24   1
    26    13    25   1
    27    14    26   1
@<TRIPOS>SUBSTRUCTURE
     1  GIM      1

