@<TRIPOS>MOLECULE
3d4z_ligand_028
    26    27
SMALL
GAST_HUCK
****
This file was generated by PARSER (from files_GN.cpp)

@<TRIPOS>ATOM
      1 C1         28.1071   65.6520   12.7986 C.2         1 GIM       0.1465
      2 C2         27.0511   65.4623   13.8160 C.3         1 GIM       0.1586
      3 N10        28.6975   64.6388   12.1267 N.pl3       1 GIM      -0.2404
      4 C3         27.1045   64.0279   14.3963 C.3         1 GIM       0.1253
      5 C4         27.2202   62.9508   13.2818 C.3         1 GIM       0.1183
      6 C5         28.3862   63.2309   12.2673 C.3         1 GIM       0.1196
      7 C6         28.0785   62.6024   10.8690 C.3         1 GIM       0.0773
      8 C7         29.5701   66.5680   11.5067 C.2         1 GIM      -0.0364
      9 C8         29.6326   65.1950   11.3334 C.2         1 GIM       0.0285
     10 N1         28.6227   66.8333   12.4150 N.2         1 GIM      -0.3367
     11 O3         25.9327   63.8203   15.1841 O.3         1 GIM      -0.3839
     12 O2         27.1963   66.4066   14.8781 O.3         1 GIM      -0.3699
     13 O4         27.4173   61.6942   13.9375 O.3         1 GIM      -0.3858
     14 O6         27.7418   61.2169   10.9344 O.3         1 GIM      -0.3918
     15 H1         26.0872   65.6339   13.3318 H           1 GIM       0.0858
     16 H2         27.9765   63.9448   15.0538 H           1 GIM       0.0675
     17 H3         26.2674   62.9073   12.7494 H           1 GIM       0.0654
     18 H4         29.2870   62.7540   12.6623 H           1 GIM       0.0704
     19 H5         28.9463   62.6909   10.2119 H           1 GIM       0.0589
     20 H6         27.2467   63.1429   10.4078 H           1 GIM       0.0589
     21 H7         30.1492   67.2579   11.0315 H           1 GIM       0.0408
     22 H8         30.2721   64.7064   10.7054 H           1 GIM       0.0796
     23 H9         25.9082   62.8596   15.3901 H           1 GIM       0.2103
     24 H10        26.9473   67.2795   14.4953 H           1 GIM       0.2138
     25 H11        27.9192   61.1324   13.3039 H           1 GIM       0.2100
     26 H12        27.8213   60.8907   10.0147 H           1 GIM       0.2095
@<TRIPOS>BOND
     1     1     2   1
     2     1     3   1
     3     1    10   2
     4     2     4   1
     5     2    12   1
     6     3     6   1
     7     3     9   1
     8     4     5   1
     9     4    11   1
    10     5     6   1
    11     5    13   1
    12     6     7   1
    13     7    14   1
    14     9     8   2
    15     8    10   1
    16     2    15   1
    17     4    16   1
    18     5    17   1
    19     6    18   1
    20     7    19   1
    21     7    20   1
    22     8    21   1
    23     9    22   1
    24    11    23   1
    25    12    24   1
    26    13    25   1
    27    14    26   1
@<TRIPOS>SUBSTRUCTURE
     1  GIM      1

