@<TRIPOS>MOLECULE
3d4z_ligand_025
    26    27
SMALL
GAST_HUCK
****
This file was generated by PARSER (from files_GN.cpp)

@<TRIPOS>ATOM
      1 C1         25.4695   63.8239    9.6537 C.2         1 GIM       0.1465
      2 C2         24.2546   64.0663    8.8554 C.3         1 GIM       0.1586
      3 N10        26.2885   64.7873   10.1375 N.pl3       1 GIM      -0.2404
      4 C3         23.8526   65.5710    8.8241 C.3         1 GIM       0.1253
      5 C4         25.0755   66.5362    8.8442 C.3         1 GIM       0.1183
      6 C5         26.0877   66.2109   10.0007 C.3         1 GIM       0.1196
      7 C6         25.6694   66.8509   11.3527 C.3         1 GIM       0.0773
      8 C7         27.0960   62.7975   10.6421 C.2         1 GIM      -0.0364
      9 C8         27.3106   64.1653   10.7454 C.2         1 GIM       0.0285
     10 N1         25.9575   62.6068    9.9574 N.2         1 GIM      -0.3367
     11 O3         22.9893   65.8544    9.9271 O.3         1 GIM      -0.3839
     12 O2         24.4994   63.5825    7.5349 O.3         1 GIM      -0.3699
     13 O4         25.7547   66.4631    7.5869 O.3         1 GIM      -0.3858
     14 O6         26.6755   66.7115   12.3479 O.3         1 GIM      -0.3918
     15 H1         23.4368   63.4775    9.2772 H           1 GIM       0.0858
     16 H2         23.2635   65.7614    7.9229 H           1 GIM       0.0675
     17 H3         24.7172   67.5672    8.9346 H           1 GIM       0.0654
     18 H4         27.0478   66.6652    9.7303 H           1 GIM       0.0704
     19 H5         24.7500   66.3925   11.7221 H           1 GIM       0.0589
     20 H6         25.4715   67.9159   11.2158 H           1 GIM       0.0589
     21 H7         27.7036   62.0640   11.0032 H           1 GIM       0.0408
     22 H8         28.1168   64.6028   11.1975 H           1 GIM       0.0796
     23 H9         22.6959   66.7806    9.7956 H           1 GIM       0.2103
     24 H10        23.6470   63.6806    7.0593 H           1 GIM       0.2138
     25 H11        26.4356   67.1725    7.6204 H           1 GIM       0.2100
     26 H12        26.2763   67.0878   13.1607 H           1 GIM       0.2095
@<TRIPOS>BOND
     1     1     2   1
     2     1     3   1
     3     1    10   2
     4     2     4   1
     5     2    12   1
     6     3     6   1
     7     3     9   1
     8     4     5   1
     9     4    11   1
    10     5     6   1
    11     5    13   1
    12     6     7   1
    13     7    14   1
    14     9     8   2
    15     8    10   1
    16     2    15   1
    17     4    16   1
    18     5    17   1
    19     6    18   1
    20     7    19   1
    21     7    20   1
    22     8    21   1
    23     9    22   1
    24    11    23   1
    25    12    24   1
    26    13    25   1
    27    14    26   1
@<TRIPOS>SUBSTRUCTURE
     1  GIM      1

