@<TRIPOS>MOLECULE
3d4z_ligand_002
    26    27
SMALL
GAST_HUCK
****
This file was generated by PARSER (from files_GN.cpp)

@<TRIPOS>ATOM
      1 C1         25.1085   67.3598    9.5090 C.2         1 GIM       0.1465
      2 C2         23.7312   67.0925    9.0495 C.3         1 GIM       0.1586
      3 N10        26.1733   66.5948    9.1850 N.pl3       1 GIM      -0.2404
      4 C3         23.5640   65.6036    8.6452 C.3         1 GIM       0.1253
      5 C4         24.7300   65.1385    7.7238 C.3         1 GIM       0.1183
      6 C5         26.1371   65.4021    8.3618 C.3         1 GIM       0.1196
      7 C6         27.2442   65.4057    7.2647 C.3         1 GIM       0.0773
      8 C7         26.8039   68.2608   10.4888 C.2         1 GIM      -0.0364
      9 C8         27.2381   67.1238    9.8164 C.2         1 GIM       0.0285
     10 N1         25.4865   68.3917   10.2878 N.2         1 GIM      -0.3367
     11 O3         22.3023   65.4636    7.9883 O.3         1 GIM      -0.3839
     12 O2         22.7719   67.4239   10.0549 O.3         1 GIM      -0.3699
     13 O4         24.5859   63.7505    7.4120 O.3         1 GIM      -0.3858
     14 O6         27.2017   66.5829    6.4630 O.3         1 GIM      -0.3918
     15 H1         23.5482   67.7220    8.1762 H           1 GIM       0.0858
     16 H2         23.5495   64.9795    9.5450 H           1 GIM       0.0675
     17 H3         24.6532   65.6886    6.7842 H           1 GIM       0.0654
     18 H4         26.3511   64.5712    9.0383 H           1 GIM       0.0704
     19 H5         27.1189   64.5466    6.6046 H           1 GIM       0.0589
     20 H6         28.2319   65.3241    7.7192 H           1 GIM       0.0589
     21 H7         27.3895   68.8855   11.0460 H           1 GIM       0.0408
     22 H8         28.2005   66.7780    9.8031 H           1 GIM       0.0796
     23 H9         22.3464   64.6366    7.4665 H           1 GIM       0.2103
     24 H10        22.3212   68.2202    9.7018 H           1 GIM       0.2138
     25 H11        23.7542   63.6765    6.8970 H           1 GIM       0.2100
     26 H12        27.4050   67.3207    7.0742 H           1 GIM       0.2095
@<TRIPOS>BOND
     1     1     2   1
     2     1     3   1
     3     1    10   2
     4     2     4   1
     5     2    12   1
     6     3     6   1
     7     3     9   1
     8     4     5   1
     9     4    11   1
    10     5     6   1
    11     5    13   1
    12     6     7   1
    13     7    14   1
    14     9     8   2
    15     8    10   1
    16     2    15   1
    17     4    16   1
    18     5    17   1
    19     6    18   1
    20     7    19   1
    21     7    20   1
    22     8    21   1
    23     9    22   1
    24    11    23   1
    25    12    24   1
    26    13    25   1
    27    14    26   1
@<TRIPOS>SUBSTRUCTURE
     1  GIM      1

