@<TRIPOS>MOLECULE
3d4z_ligand_039
    26    27
SMALL
GAST_HUCK
****
This file was generated by PARSER (from files_GN.cpp)

@<TRIPOS>ATOM
      1 C1         26.8155   63.2663   12.1968 C.2         1 GIM       0.1465
      2 C2         26.3833   63.8169   13.4998 C.3         1 GIM       0.1586
      3 N10        25.9726   62.7506   11.2707 N.pl3       1 GIM      -0.2404
      4 C3         24.8430   64.0519   13.5555 C.3         1 GIM       0.1253
      5 C4         24.0575   62.9240   12.8165 C.3         1 GIM       0.1183
      6 C5         24.5319   62.7309   11.3341 C.3         1 GIM       0.1196
      7 C6         23.9256   63.7076   10.2694 C.3         1 GIM       0.0773
      8 C7         28.0670   62.5146   10.6140 C.2         1 GIM      -0.0364
      9 C8         26.7446   62.2774   10.2789 C.2         1 GIM       0.0285
     10 N1         28.0957   63.1163   11.8099 N.2         1 GIM      -0.3367
     11 O3         24.5307   65.3316   13.0117 O.3         1 GIM      -0.3839
     12 O2         26.8204   62.8761   14.4850 O.3         1 GIM      -0.3699
     13 O4         24.2651   61.6778   13.5099 O.3         1 GIM      -0.3858
     14 O6         23.1184   64.7802   10.7701 O.3         1 GIM      -0.3918
     15 H1         26.9045   64.7612   13.6876 H           1 GIM       0.0858
     16 H2         24.5250   64.0783   14.5994 H           1 GIM       0.0675
     17 H3         22.9845   63.1292   12.8632 H           1 GIM       0.0654
     18 H4         24.2121   61.7287   11.0538 H           1 GIM       0.0704
     19 H5         23.3213   63.1445    9.5552 H           1 GIM       0.0589
     20 H6         24.7132   64.1821    9.6928 H           1 GIM       0.0589
     21 H7         28.8804   62.2762   10.0569 H           1 GIM       0.0408
     22 H8         26.4184   61.8176    9.4161 H           1 GIM       0.0796
     23 H9         24.9258   65.3500   12.1211 H           1 GIM       0.2103
     24 H10        25.9983   62.5266   14.9045 H           1 GIM       0.2138
     25 H11        23.8870   61.7906   14.4170 H           1 GIM       0.2100
     26 H12        22.1891   64.4921   10.6502 H           1 GIM       0.2095
@<TRIPOS>BOND
     1     1     2   1
     2     1     3   1
     3     1    10   2
     4     2     4   1
     5     2    12   1
     6     3     6   1
     7     3     9   1
     8     4     5   1
     9     4    11   1
    10     5     6   1
    11     5    13   1
    12     6     7   1
    13     7    14   1
    14     9     8   2
    15     8    10   1
    16     2    15   1
    17     4    16   1
    18     5    17   1
    19     6    18   1
    20     7    19   1
    21     7    20   1
    22     8    21   1
    23     9    22   1
    24    11    23   1
    25    12    24   1
    26    13    25   1
    27    14    26   1
@<TRIPOS>SUBSTRUCTURE
     1  GIM      1

