@<TRIPOS>MOLECULE
3d4z_ligand_024
    26    27
SMALL
GAST_HUCK
****
This file was generated by PARSER (from files_GN.cpp)

@<TRIPOS>ATOM
      1 C1         24.1332   63.5886    9.2736 C.2         1 GIM       0.1465
      2 C2         23.4787   64.6272    8.4573 C.3         1 GIM       0.1586
      3 N10        24.1302   63.5828   10.6262 N.pl3       1 GIM      -0.2404
      4 C3         23.3458   65.9472    9.2588 C.3         1 GIM       0.1253
      5 C4         22.7206   65.6732   10.6530 C.3         1 GIM       0.1183
      6 C5         23.5085   64.5841   11.4725 C.3         1 GIM       0.1196
      7 C6         22.5735   64.0082   12.5878 C.3         1 GIM       0.0773
      8 C7         25.4164   61.9534    9.8552 C.2         1 GIM      -0.0364
      9 C8         24.9613   62.5841   11.0007 C.2         1 GIM       0.0285
     10 N1         24.9113   62.5991    8.7939 N.2         1 GIM      -0.3367
     11 O3         22.5220   66.8298    8.4989 O.3         1 GIM      -0.3839
     12 O2         24.2059   64.8709    7.2580 O.3         1 GIM      -0.3699
     13 O4         22.6224   66.8773   11.4156 O.3         1 GIM      -0.3858
     14 O6         22.9929   62.7517   13.1030 O.3         1 GIM      -0.3918
     15 H1         22.4840   64.2634    8.1901 H           1 GIM       0.0858
     16 H2         24.3304   66.4033    9.3841 H           1 GIM       0.0675
     17 H3         21.6981   65.3255   10.4729 H           1 GIM       0.0654
     18 H4         24.3398   65.0902   11.9818 H           1 GIM       0.0704
     19 H5         21.5582   63.8752   12.2174 H           1 GIM       0.0589
     20 H6         22.5377   64.7105   13.4240 H           1 GIM       0.0589
     21 H7         26.0711   61.1733    9.8175 H           1 GIM       0.0408
     22 H8         25.2471   62.3495   11.9526 H           1 GIM       0.0796
     23 H9         22.8599   67.7376    8.6339 H           1 GIM       0.2103
     24 H10        23.6399   64.4974    6.5527 H           1 GIM       0.2138
     25 H11        21.9449   67.4161   10.9577 H           1 GIM       0.2100
     26 H12        22.2848   62.4803   13.7296 H           1 GIM       0.2095
@<TRIPOS>BOND
     1     1     2   1
     2     1     3   1
     3     1    10   2
     4     2     4   1
     5     2    12   1
     6     3     6   1
     7     3     9   1
     8     4     5   1
     9     4    11   1
    10     5     6   1
    11     5    13   1
    12     6     7   1
    13     7    14   1
    14     9     8   2
    15     8    10   1
    16     2    15   1
    17     4    16   1
    18     5    17   1
    19     6    18   1
    20     7    19   1
    21     7    20   1
    22     8    21   1
    23     9    22   1
    24    11    23   1
    25    12    24   1
    26    13    25   1
    27    14    26   1
@<TRIPOS>SUBSTRUCTURE
     1  GIM      1

