@<TRIPOS>MOLECULE
3d4z_ligand_026
    26    27
SMALL
GAST_HUCK
****
This file was generated by PARSER (from files_GN.cpp)

@<TRIPOS>ATOM
      1 C1         25.6812   65.1576    9.5054 C.2         1 GIM       0.1465
      2 C2         24.4780   64.5439    8.9060 C.3         1 GIM       0.1586
      3 N10        25.6651   66.2974   10.2356 N.pl3       1 GIM      -0.2404
      4 C3         23.3628   65.6155    8.7390 C.3         1 GIM       0.1253
      5 C4         23.1633   66.4039   10.0633 C.3         1 GIM       0.1183
      6 C5         24.4933   67.0991   10.5246 C.3         1 GIM       0.1196
      7 C6         24.4060   67.5115   12.0233 C.3         1 GIM       0.0773
      8 C7         27.7353   65.5598   10.0210 C.2         1 GIM      -0.0364
      9 C8         26.9463   66.5738   10.5429 C.2         1 GIM       0.0285
     10 N1         26.9386   64.6952    9.3799 N.2         1 GIM      -0.3367
     11 O3         22.1363   65.0011    8.3481 O.3         1 GIM      -0.3839
     12 O2         24.7921   63.9295    7.6547 O.3         1 GIM      -0.3699
     13 O4         22.1113   67.3603    9.9203 O.3         1 GIM      -0.3858
     14 O6         24.3614   66.3714   12.8777 O.3         1 GIM      -0.3918
     15 H1         24.1307   63.7593    9.5825 H           1 GIM       0.0858
     16 H2         23.6520   66.3192    7.9536 H           1 GIM       0.0675
     17 H3         22.8396   65.6884   10.8252 H           1 GIM       0.0654
     18 H4         24.6028   68.0200    9.9420 H           1 GIM       0.0704
     19 H5         23.5107   68.1140   12.1954 H           1 GIM       0.0589
     20 H6         25.2710   68.1173   12.3003 H           1 GIM       0.0589
     21 H7         28.7515   65.4912   10.0937 H           1 GIM       0.0408
     22 H8         27.2925   67.3828   11.0631 H           1 GIM       0.0796
     23 H9         22.3237   64.5721    7.4879 H           1 GIM       0.2103
     24 H10        25.0628   64.6597    7.0591 H           1 GIM       0.2138
     25 H11        22.4030   67.9779    9.2169 H           1 GIM       0.2100
     26 H12        24.2606   66.7341   13.7837 H           1 GIM       0.2095
@<TRIPOS>BOND
     1     1     2   1
     2     1     3   1
     3     1    10   2
     4     2     4   1
     5     2    12   1
     6     3     6   1
     7     3     9   1
     8     4     5   1
     9     4    11   1
    10     5     6   1
    11     5    13   1
    12     6     7   1
    13     7    14   1
    14     9     8   2
    15     8    10   1
    16     2    15   1
    17     4    16   1
    18     5    17   1
    19     6    18   1
    20     7    19   1
    21     7    20   1
    22     8    21   1
    23     9    22   1
    24    11    23   1
    25    12    24   1
    26    13    25   1
    27    14    26   1
@<TRIPOS>SUBSTRUCTURE
     1  GIM      1

