@<TRIPOS>MOLECULE
3d4z_ligand_017
    26    27
SMALL
GAST_HUCK
****
This file was generated by PARSER (from files_GN.cpp)

@<TRIPOS>ATOM
      1 C1         24.8404   64.2109   11.2592 C.2         1 GIM       0.1465
      2 C2         23.9409   63.1719   10.7184 C.3         1 GIM       0.1586
      3 N10        25.5268   65.0964   10.5091 N.pl3       1 GIM      -0.2404
      4 C3         24.1744   62.9551    9.1926 C.3         1 GIM       0.1253
      5 C4         24.3676   64.3015    8.4436 C.3         1 GIM       0.1183
      6 C5         25.5128   65.1630    9.0654 C.3         1 GIM       0.1196
      7 C6         25.4599   66.6191    8.5114 C.3         1 GIM       0.0773
      8 C7         26.0435   65.3426   12.6465 C.2         1 GIM      -0.0364
      9 C8         26.3126   65.7845   11.3657 C.2         1 GIM       0.0285
     10 N1         25.1283   64.3706   12.5612 N.2         1 GIM      -0.3367
     11 O3         23.0760   62.2039    8.6440 O.3         1 GIM      -0.3839
     12 O2         24.1707   61.9580   11.4466 O.3         1 GIM      -0.3699
     13 O4         24.6623   63.9938    7.0921 O.3         1 GIM      -0.3858
     14 O6         26.0755   66.6606    7.2151 O.3         1 GIM      -0.3918
     15 H1         22.9166   63.4901   10.8979 H           1 GIM       0.0858
     16 H2         25.0805   62.3488    9.0511 H           1 GIM       0.0675
     17 H3         23.4261   64.8550    8.4884 H           1 GIM       0.0654
     18 H4         26.4712   64.7339    8.7514 H           1 GIM       0.0704
     19 H5         26.0251   67.3067    9.1526 H           1 GIM       0.0589
     20 H6         24.4511   67.0032    8.4313 H           1 GIM       0.0589
     21 H7         26.4726   65.6817   13.5043 H           1 GIM       0.0408
     22 H8         27.0081   66.4987   11.1235 H           1 GIM       0.0796
     23 H9         22.8047   62.6742    7.8053 H           1 GIM       0.2103
     24 H10        23.8698   61.2288   10.8554 H           1 GIM       0.2138
     25 H11        23.8115   64.1554    6.5973 H           1 GIM       0.2100
     26 H12        26.7892   67.3585    7.3194 H           1 GIM       0.2095
@<TRIPOS>BOND
     1     1     2   1
     2     1     3   1
     3     1    10   2
     4     2     4   1
     5     2    12   1
     6     3     6   1
     7     3     9   1
     8     4     5   1
     9     4    11   1
    10     5     6   1
    11     5    13   1
    12     6     7   1
    13     7    14   1
    14     9     8   2
    15     8    10   1
    16     2    15   1
    17     4    16   1
    18     5    17   1
    19     6    18   1
    20     7    19   1
    21     7    20   1
    22     8    21   1
    23     9    22   1
    24    11    23   1
    25    12    24   1
    26    13    25   1
    27    14    26   1
@<TRIPOS>SUBSTRUCTURE
     1  GIM      1

