@<TRIPOS>MOLECULE
3d4z_ligand_040
    26    27
SMALL
GAST_HUCK
****
This file was generated by PARSER (from files_GN.cpp)

@<TRIPOS>ATOM
      1 C1         24.5909   63.9463    8.8669 C.2         1 GIM       0.1465
      2 C2         25.1876   64.8641    7.8761 C.3         1 GIM       0.1586
      3 N10        23.9321   64.3537    9.9769 N.pl3       1 GIM      -0.2404
      4 C3         25.3733   66.2710    8.4907 C.3         1 GIM       0.1253
      5 C4         24.0832   66.7407    9.2205 C.3         1 GIM       0.1183
      6 C5         23.6540   65.7307   10.3470 C.3         1 GIM       0.1196
      7 C6         22.1612   65.9201   10.7243 C.3         1 GIM       0.0773
      8 C7         24.0627   62.1532    9.9361 C.2         1 GIM      -0.0364
      9 C8         23.6349   63.2381   10.6673 C.2         1 GIM       0.0285
     10 N1         24.6594   62.6059    8.8223 N.2         1 GIM      -0.3367
     11 O3         25.7177   67.1971    7.4580 O.3         1 GIM      -0.3839
     12 O2         26.4542   64.3521    7.4769 O.3         1 GIM      -0.3699
     13 O4         24.2820   68.0374    9.7723 O.3         1 GIM      -0.3858
     14 O6         21.8550   67.2452   11.1599 O.3         1 GIM      -0.3918
     15 H1         24.5268   64.9143    7.0089 H           1 GIM       0.0858
     16 H2         26.1945   66.2560    9.2156 H           1 GIM       0.0675
     17 H3         23.2823   66.7991    8.4757 H           1 GIM       0.0654
     18 H4         24.2545   65.9429   11.2324 H           1 GIM       0.0704
     19 H5         21.8961   65.2494   11.5430 H           1 GIM       0.0589
     20 H6         21.5282   65.6825    9.8695 H           1 GIM       0.0589
     21 H7         23.9618   61.1735   10.1920 H           1 GIM       0.0408
     22 H8         23.1478   63.1954   11.5751 H           1 GIM       0.0796
     23 H9         26.6596   67.0239    7.2483 H           1 GIM       0.2103
     24 H10        26.7732   64.9576    6.7770 H           1 GIM       0.2138
     25 H11        23.7045   68.6299    9.2539 H           1 GIM       0.2100
     26 H12        21.9254   67.8141   10.3484 H           1 GIM       0.2095
@<TRIPOS>BOND
     1     1     2   1
     2     1     3   1
     3     1    10   2
     4     2     4   1
     5     2    12   1
     6     3     6   1
     7     3     9   1
     8     4     5   1
     9     4    11   1
    10     5     6   1
    11     5    13   1
    12     6     7   1
    13     7    14   1
    14     9     8   2
    15     8    10   1
    16     2    15   1
    17     4    16   1
    18     5    17   1
    19     6    18   1
    20     7    19   1
    21     7    20   1
    22     8    21   1
    23     9    22   1
    24    11    23   1
    25    12    24   1
    26    13    25   1
    27    14    26   1
@<TRIPOS>SUBSTRUCTURE
     1  GIM      1

