@<TRIPOS>MOLECULE
3d4z_ligand_027
    26    27
SMALL
GAST_HUCK
****
This file was generated by PARSER (from files_GN.cpp)

@<TRIPOS>ATOM
      1 C1         25.0075   63.2377   12.2149 C.2         1 GIM       0.1465
      2 C2         24.3244   63.3428   13.5197 C.3         1 GIM       0.1586
      3 N10        26.3486   63.3533   12.0507 N.pl3       1 GIM      -0.2404
      4 C3         25.2444   64.0597   14.5480 C.3         1 GIM       0.1253
      5 C4         26.6873   63.4673   14.5304 C.3         1 GIM       0.1183
      6 C5         27.3192   63.5822   13.1060 C.3         1 GIM       0.1196
      7 C6         28.5733   62.6664   12.9599 C.3         1 GIM       0.0773
      8 C7         25.3504   63.0954   10.0959 C.2         1 GIM      -0.0364
      9 C8         26.5704   63.2855   10.7270 C.2         1 GIM       0.0285
     10 N1         24.3956   63.0643   11.0331 N.2         1 GIM      -0.3367
     11 O3         24.6591   63.9830   15.8475 O.3         1 GIM      -0.3839
     12 O2         23.0937   64.0535   13.3887 O.3         1 GIM      -0.3699
     13 O4         27.4792   64.1592   15.5015 O.3         1 GIM      -0.3858
     14 O6         28.2404   61.2885   12.8117 O.3         1 GIM      -0.3918
     15 H1         24.0876   62.3275   13.8565 H           1 GIM       0.0858
     16 H2         25.2999   65.1165   14.2922 H           1 GIM       0.0675
     17 H3         26.6304   62.4081   14.8121 H           1 GIM       0.0654
     18 H4         27.6661   64.6146   12.9847 H           1 GIM       0.0704
     19 H5         29.2658   62.7973   13.7940 H           1 GIM       0.0589
     20 H6         29.1092   62.9536   12.0530 H           1 GIM       0.0589
     21 H7         25.1891   63.0112    9.0927 H           1 GIM       0.0408
     22 H8         27.4763   63.3487   10.2606 H           1 GIM       0.0796
     23 H9         24.6052   63.0255   16.0469 H           1 GIM       0.2103
     24 H10        23.3393   64.9452   13.0667 H           1 GIM       0.2138
     25 H11        28.1196   63.5151   15.8702 H           1 GIM       0.2100
     26 H12        28.0851   60.9350   13.7160 H           1 GIM       0.2095
@<TRIPOS>BOND
     1     1     2   1
     2     1     3   1
     3     1    10   2
     4     2     4   1
     5     2    12   1
     6     3     6   1
     7     3     9   1
     8     4     5   1
     9     4    11   1
    10     5     6   1
    11     5    13   1
    12     6     7   1
    13     7    14   1
    14     9     8   2
    15     8    10   1
    16     2    15   1
    17     4    16   1
    18     5    17   1
    19     6    18   1
    20     7    19   1
    21     7    20   1
    22     8    21   1
    23     9    22   1
    24    11    23   1
    25    12    24   1
    26    13    25   1
    27    14    26   1
@<TRIPOS>SUBSTRUCTURE
     1  GIM      1

