@<TRIPOS>MOLECULE
3d4z_ligand_051
    26    27
SMALL
GAST_HUCK
****
This file was generated by PARSER (from files_GN.cpp)

@<TRIPOS>ATOM
      1 C1         29.1510   65.1260    7.4041 C.2         1 GIM       0.1465
      2 C2         28.3086   65.7229    8.4612 C.3         1 GIM       0.1586
      3 N10        30.4534   65.4401    7.1621 N.pl3       1 GIM      -0.2404
      4 C3         29.1263   66.6976    9.3728 C.3         1 GIM       0.1253
      5 C4         30.2487   67.4367    8.5857 C.3         1 GIM       0.1183
      6 C5         31.2100   66.4687    7.8194 C.3         1 GIM       0.1196
      7 C6         32.3264   65.8556    8.7174 C.3         1 GIM       0.0773
      8 C7         29.8152   63.8010    5.8390 C.2         1 GIM      -0.0364
      9 C8         30.8882   64.6143    6.1866 C.2         1 GIM       0.0285
     10 N1         28.7575   64.1335    6.5910 N.2         1 GIM      -0.3367
     11 O3         29.7082   65.9891   10.4645 O.3         1 GIM      -0.3839
     12 O2         27.1855   66.3547    7.8399 O.3         1 GIM      -0.3699
     13 O4         29.6347   68.2903    7.6137 O.3         1 GIM      -0.3858
     14 O6         33.4677   65.4779    7.9438 O.3         1 GIM      -0.3918
     15 H1         27.9143   64.9167    9.0844 H           1 GIM       0.0858
     16 H2         28.4516   67.4328    9.8021 H           1 GIM       0.0675
     17 H3         30.8172   68.0610    9.2779 H           1 GIM       0.0654
     18 H4         31.7064   67.0731    7.0474 H           1 GIM       0.0704
     19 H5         31.9545   64.9660    9.2268 H           1 GIM       0.0589
     20 H6         32.6608   66.5718    9.4782 H           1 GIM       0.0589
     21 H7         29.8230   63.0529    5.1485 H           1 GIM       0.0408
     22 H8         31.8330   64.5797    5.7954 H           1 GIM       0.0796
     23 H9         28.9510   65.6088   10.9631 H           1 GIM       0.2103
     24 H10        27.4775   67.2775    7.6423 H           1 GIM       0.2138
     25 H11        28.8808   68.7248    8.0679 H           1 GIM       0.2100
     26 H12        33.8311   66.3156    7.5653 H           1 GIM       0.2095
@<TRIPOS>BOND
     1     1     2   1
     2     1     3   1
     3     1    10   2
     4     2     4   1
     5     2    12   1
     6     3     6   1
     7     3     9   1
     8     4     5   1
     9     4    11   1
    10     5     6   1
    11     5    13   1
    12     6     7   1
    13     7    14   1
    14     9     8   2
    15     8    10   1
    16     2    15   1
    17     4    16   1
    18     5    17   1
    19     6    18   1
    20     7    19   1
    21     7    20   1
    22     8    21   1
    23     9    22   1
    24    11    23   1
    25    12    24   1
    26    13    25   1
    27    14    26   1
@<TRIPOS>SUBSTRUCTURE
     1  GIM      1

