@<TRIPOS>MOLECULE
3d4z_ligand_034
    26    27
SMALL
GAST_HUCK
****
This file was generated by PARSER (from files_GN.cpp)

@<TRIPOS>ATOM
      1 C1         25.3744   66.4389    9.2141 C.2         1 GIM       0.1465
      2 C2         25.4265   67.3205   10.4028 C.3         1 GIM       0.1586
      3 N10        24.2707   65.7784    8.7908 N.pl3       1 GIM      -0.2404
      4 C3         24.0119   67.5731   11.0097 C.3         1 GIM       0.1253
      5 C4         23.0667   66.3424   10.8830 C.3         1 GIM       0.1183
      6 C5         22.9658   65.8148    9.4092 C.3         1 GIM       0.1196
      7 C6         21.9338   66.5881    8.5195 C.3         1 GIM       0.0773
      8 C7         25.9734   65.3004    7.4773 C.2         1 GIM      -0.0364
      9 C8         24.6248   65.0707    7.7036 C.2         1 GIM       0.0285
     10 N1         26.4220   66.1377    8.4233 N.2         1 GIM      -0.3367
     11 O3         23.4080   68.7205   10.4105 O.3         1 GIM      -0.3839
     12 O2         26.2783   66.7355   11.3890 O.3         1 GIM      -0.3699
     13 O4         23.5298   65.3003   11.7491 O.3         1 GIM      -0.3858
     14 O6         21.0521   65.7110    7.8180 O.3         1 GIM      -0.3918
     15 H1         25.8662   68.2777   10.1125 H           1 GIM       0.0858
     16 H2         24.1181   67.8190   12.0696 H           1 GIM       0.0675
     17 H3         22.0751   66.6129   11.2541 H           1 GIM       0.0654
     18 H4         22.6177   64.7811    9.4867 H           1 GIM       0.0704
     19 H5         22.4410   67.2192    7.7892 H           1 GIM       0.0589
     20 H6         21.3009   67.2419    9.1201 H           1 GIM       0.0589
     21 H7         26.5348   64.8887    6.7306 H           1 GIM       0.0408
     22 H8         24.0229   64.4573    7.1499 H           1 GIM       0.0796
     23 H9         23.3913   68.5587    9.4445 H           1 GIM       0.2103
     24 H10        27.1950   66.8595   11.0615 H           1 GIM       0.2138
     25 H11        24.3954   65.0100   11.3915 H           1 GIM       0.2100
     26 H12        21.6153   65.1270    7.2667 H           1 GIM       0.2095
@<TRIPOS>BOND
     1     1     2   1
     2     1     3   1
     3     1    10   2
     4     2     4   1
     5     2    12   1
     6     3     6   1
     7     3     9   1
     8     4     5   1
     9     4    11   1
    10     5     6   1
    11     5    13   1
    12     6     7   1
    13     7    14   1
    14     9     8   2
    15     8    10   1
    16     2    15   1
    17     4    16   1
    18     5    17   1
    19     6    18   1
    20     7    19   1
    21     7    20   1
    22     8    21   1
    23     9    22   1
    24    11    23   1
    25    12    24   1
    26    13    25   1
    27    14    26   1
@<TRIPOS>SUBSTRUCTURE
     1  GIM      1

