@<TRIPOS>MOLECULE
3d4z_ligand_050
    26    27
SMALL
GAST_HUCK
****
This file was generated by PARSER (from files_GN.cpp)

@<TRIPOS>ATOM
      1 C1         29.3557   64.6288    8.9831 C.2         1 GIM       0.1465
      2 C2         29.7143   65.1831    7.6519 C.3         1 GIM       0.1586
      3 N10        29.7676   65.1334   10.1659 N.pl3       1 GIM      -0.2404
      4 C3         30.4794   66.5414    7.7536 C.3         1 GIM       0.1253
      5 C4         31.3580   66.6554    9.0380 C.3         1 GIM       0.1183
      6 C5         30.6084   66.2804   10.3610 C.3         1 GIM       0.1196
      7 C6         29.8011   67.4473   11.0135 C.3         1 GIM       0.0773
      8 C7         28.5200   63.3572   10.5308 C.2         1 GIM      -0.0364
      9 C8         29.2584   64.3545   11.1360 C.2         1 GIM       0.0285
     10 N1         28.5936   63.5415    9.2033 N.2         1 GIM      -0.3367
     11 O3         29.5913   67.6509    7.6369 O.3         1 GIM      -0.3839
     12 O2         30.5333   64.2483    6.9418 O.3         1 GIM      -0.3699
     13 O4         32.4904   65.7949    8.8861 O.3         1 GIM      -0.3858
     14 O6         30.5317   68.0653   12.0660 O.3         1 GIM      -0.3918
     15 H1         28.7991   65.3293    7.0730 H           1 GIM       0.0858
     16 H2         31.1401   66.6379    6.8890 H           1 GIM       0.0675
     17 H3         31.7567   67.6681    9.1056 H           1 GIM       0.0654
     18 H4         31.3752   65.9829   11.0774 H           1 GIM       0.0704
     19 H5         28.8654   67.0901   11.4494 H           1 GIM       0.0589
     20 H6         29.5399   68.2080   10.2780 H           1 GIM       0.0589
     21 H7         28.0116   62.6149   11.0071 H           1 GIM       0.0408
     22 H8         29.4009   64.4697   12.1432 H           1 GIM       0.0796
     23 H9         28.8404   67.4701    8.2252 H           1 GIM       0.2103
     24 H10        29.9650   63.8437    6.2571 H           1 GIM       0.2138
     25 H11        32.1300   64.8840    8.9286 H           1 GIM       0.2100
     26 H12        30.7865   67.3278   12.6587 H           1 GIM       0.2095
@<TRIPOS>BOND
     1     1     2   1
     2     1     3   1
     3     1    10   2
     4     2     4   1
     5     2    12   1
     6     3     6   1
     7     3     9   1
     8     4     5   1
     9     4    11   1
    10     5     6   1
    11     5    13   1
    12     6     7   1
    13     7    14   1
    14     9     8   2
    15     8    10   1
    16     2    15   1
    17     4    16   1
    18     5    17   1
    19     6    18   1
    20     7    19   1
    21     7    20   1
    22     8    21   1
    23     9    22   1
    24    11    23   1
    25    12    24   1
    26    13    25   1
    27    14    26   1
@<TRIPOS>SUBSTRUCTURE
     1  GIM      1

