@<TRIPOS>MOLECULE
3d4z_ligand_049
    26    27
SMALL
GAST_HUCK
****
This file was generated by PARSER (from files_GN.cpp)

@<TRIPOS>ATOM
      1 C1         21.2368   67.2615    9.0692 C.2         1 GIM       0.1465
      2 C2         21.3057   66.0474    8.2279 C.3         1 GIM       0.1586
      3 N10        22.0297   67.5067   10.1376 N.pl3       1 GIM      -0.2404
      4 C3         22.5450   65.1663    8.5591 C.3         1 GIM       0.1253
      5 C4         22.9190   65.1909   10.0699 C.3         1 GIM       0.1183
      6 C5         23.0766   66.6466   10.6294 C.3         1 GIM       0.1196
      7 C6         24.4659   67.2948   10.3522 C.3         1 GIM       0.0773
      8 C7         20.5923   69.1541    9.8845 C.2         1 GIM      -0.0364
      9 C8         21.6460   68.6862   10.6528 C.2         1 GIM       0.0285
     10 N1         20.3506   68.2642    8.9142 N.2         1 GIM      -0.3367
     11 O3         23.6693   65.5899    7.7849 O.3         1 GIM      -0.3839
     12 O2         20.1099   65.2938    8.4178 O.3         1 GIM      -0.3699
     13 O4         21.8859   64.5146   10.7918 O.3         1 GIM      -0.3858
     14 O6         24.6249   67.6849    8.9913 O.3         1 GIM      -0.3918
     15 H1         21.3439   66.3494    7.1775 H           1 GIM       0.0858
     16 H2         22.3448   64.1334    8.2572 H           1 GIM       0.0675
     17 H3         23.8382   64.6153   10.2236 H           1 GIM       0.0654
     18 H4         22.9784   66.5764   11.7200 H           1 GIM       0.0704
     19 H5         25.2598   66.5740   10.5849 H           1 GIM       0.0589
     20 H6         24.6221   68.1671   10.9845 H           1 GIM       0.0589
     21 H7         20.0809   70.0232   10.0362 H           1 GIM       0.0408
     22 H8         22.0431   69.1538   11.4683 H           1 GIM       0.0796
     23 H9         23.5650   65.1417    6.9192 H           1 GIM       0.2103
     24 H10        20.0894   65.0673    9.3701 H           1 GIM       0.2138
     25 H11        22.2526   64.3654   11.6889 H           1 GIM       0.2100
     26 H12        23.9232   68.3505    8.8351 H           1 GIM       0.2095
@<TRIPOS>BOND
     1     1     2   1
     2     1     3   1
     3     1    10   2
     4     2     4   1
     5     2    12   1
     6     3     6   1
     7     3     9   1
     8     4     5   1
     9     4    11   1
    10     5     6   1
    11     5    13   1
    12     6     7   1
    13     7    14   1
    14     9     8   2
    15     8    10   1
    16     2    15   1
    17     4    16   1
    18     5    17   1
    19     6    18   1
    20     7    19   1
    21     7    20   1
    22     8    21   1
    23     9    22   1
    24    11    23   1
    25    12    24   1
    26    13    25   1
    27    14    26   1
@<TRIPOS>SUBSTRUCTURE
     1  GIM      1

