@<TRIPOS>MOLECULE
3dd0_ligand_012
    26    27
SMALL
GAST_HUCK
****
This file was generated by PARSER (from files_GN.cpp)

@<TRIPOS>ATOM
      1 N1         -5.0054    5.9650    9.9697 N.am        1 EZL      -0.2548
      2 C2         -4.9386    1.5245   11.1057 C.ar        1 EZL       0.0296
      3 C3         -4.1641    1.2659   12.2479 C.ar        1 EZL       0.0510
      4 C4         -3.9950   -0.0298   12.7535 C.ar        1 EZL      -0.0189
      5 C5         -4.5983   -1.1044   12.0690 C.ar        1 EZL       0.0844
      6 C8         -3.1032   -2.9243   12.2554 C.3         1 EZL       0.0670
      7 O1         -4.8929    6.0813   12.6058 O.2         1 EZL      -0.1431
      8 O2         -2.7173    5.8813   11.3473 O.2         1 EZL      -0.1431
      9 S1         -4.2274    5.3845   11.3407 S.o2        1 EZL       0.1041
     10 C1         -4.3204    3.6713   11.5411 C.2         1 EZL       0.2500
     11 N2         -5.0135    2.8308   10.7419 N.2         1 EZL      -0.2771
     12 S2         -3.5482    2.7723   12.7882 S.3         1 EZL       0.0259
     13 C6         -5.4098   -0.8592   10.9386 C.ar        1 EZL      -0.0391
     14 C7         -5.5693    0.4531   10.4455 C.ar        1 EZL      -0.0596
     15 O3         -4.4171   -2.3818   12.4969 O.3         1 EZL      -0.3212
     16 C9         -3.2229   -4.1901   11.3928 C.3         1 EZL      -0.0372
     17 H1         -5.9009    6.3307   10.0394 H           1 EZL       0.1640
     18 H2         -4.5679    5.9118    9.1060 H           1 EZL       0.1640
     19 H3         -3.4085   -0.1912   13.5716 H           1 EZL       0.0487
     20 H4         -2.6842   -3.1839   13.2247 H           1 EZL       0.0610
     21 H5         -2.4028   -2.2387   11.7608 H           1 EZL       0.0610
     22 H6         -5.8628   -1.6350   10.4514 H           1 EZL       0.0502
     23 H7         -6.1375    0.6237    9.6128 H           1 EZL       0.0565
     24 H8         -2.2351   -4.6240   11.2223 H           1 EZL       0.0255
     25 H9         -3.6645   -3.9367   10.4259 H           1 EZL       0.0255
     26 H10        -3.8542   -4.9314   11.8840 H           1 EZL       0.0255
@<TRIPOS>BOND
     1     9     1  am
     2     2     3  ar
     3    11     2   1
     4     2    14  ar
     5     3     4  ar
     6     3    12   1
     7     4     5  ar
     8     5    13  ar
     9     5    15   1
    10    15     6   1
    11     6    16   1
    12     9     7   2
    13     9     8   2
    14    10     9   1
    15    10    11   2
    16    10    12   1
    17    13    14  ar
    18     1    17   1
    19     1    18   1
    20     4    19   1
    21     6    20   1
    22     6    21   1
    23    13    22   1
    24    14    23   1
    25    16    24   1
    26    16    25   1
    27    16    26   1
@<TRIPOS>SUBSTRUCTURE
     1  EZL      2

