@<TRIPOS>MOLECULE
3dd0_ligand_001
    26    27
SMALL
GAST_HUCK
****
This file was generated by PARSER (from files_GN.cpp)

@<TRIPOS>ATOM
      1 N1         -6.1041    1.3459   19.5148 N.am        1 EZL      -0.2548
      2 C2         -5.0077    0.5478   14.5667 C.ar        1 EZL       0.0296
      3 C3         -4.5731    1.8703   14.7579 C.ar        1 EZL       0.0510
      4 C4         -3.9163    2.5921   13.7460 C.ar        1 EZL      -0.0189
      5 C5         -3.6941    1.9569   12.5047 C.ar        1 EZL       0.0844
      6 C8         -3.8845    3.2454   10.5457 C.3         1 EZL       0.0670
      7 O1         -8.0689    0.4611   17.9953 O.2         1 EZL      -0.1431
      8 O2         -6.2392   -1.1563   18.5707 O.2         1 EZL      -0.1431
      9 S1         -6.4952    0.3679   18.2013 S.o2        1 EZL       0.1041
     10 C1         -5.7325    0.7932   16.7076 C.2         1 EZL       0.2500
     11 N2         -5.6416   -0.0138   15.6289 N.2         1 EZL      -0.2771
     12 S2         -5.0091    2.3145   16.3569 S.3         1 EZL       0.0259
     13 C6         -4.1176    0.6199   12.3053 C.ar        1 EZL      -0.0391
     14 C7         -4.7766   -0.0852   13.3336 C.ar        1 EZL      -0.0596
     15 O3         -3.0239    2.6369   11.5280 O.3         1 EZL      -0.3212
     16 C9         -3.0238    4.0518    9.5565 C.3         1 EZL      -0.0372
     17 H1         -6.7235    2.0318   19.8026 H           1 EZL       0.1640
     18 H2         -5.2943    1.1867   20.0347 H           1 EZL       0.1640
     19 H3         -3.5989    3.5475   13.9120 H           1 EZL       0.0487
     20 H4         -4.6012    3.9223   11.0178 H           1 EZL       0.0610
     21 H5         -4.4390    2.4831    9.9921 H           1 EZL       0.0610
     22 H6         -3.9411    0.1558   11.4093 H           1 EZL       0.0502
     23 H7         -5.0821   -1.0489   13.1810 H           1 EZL       0.0565
     24 H8         -3.6498    4.4696    8.7690 H           1 EZL       0.0255
     25 H9         -2.2708    3.4069    9.1036 H           1 EZL       0.0255
     26 H10        -2.5212    4.8667   10.0821 H           1 EZL       0.0255
@<TRIPOS>BOND
     1     9     1  am
     2     2     3  ar
     3    11     2   1
     4     2    14  ar
     5     3     4  ar
     6     3    12   1
     7     4     5  ar
     8     5    13  ar
     9     5    15   1
    10    15     6   1
    11     6    16   1
    12     9     7   2
    13     9     8   2
    14    10     9   1
    15    10    11   2
    16    10    12   1
    17    13    14  ar
    18     1    17   1
    19     1    18   1
    20     4    19   1
    21     6    20   1
    22     6    21   1
    23    13    22   1
    24    14    23   1
    25    16    24   1
    26    16    25   1
    27    16    26   1
@<TRIPOS>SUBSTRUCTURE
     1  EZL      2

