@<TRIPOS>MOLECULE
3dd0_ligand_016
    26    27
SMALL
GAST_HUCK
****
This file was generated by PARSER (from files_GN.cpp)

@<TRIPOS>ATOM
      1 N1         -3.3119   -0.1815   15.6857 N.am        1 EZL      -0.2548
      2 C2         -5.8555    3.6684   14.2226 C.ar        1 EZL       0.0296
      3 C3         -4.9084    4.0057   13.2440 C.ar        1 EZL       0.0510
      4 C4         -4.8606    5.2893   12.6735 C.ar        1 EZL      -0.0189
      5 C5         -5.7979    6.2552   13.1022 C.ar        1 EZL       0.0844
      6 C8         -6.7389    7.6836   11.4528 C.3         1 EZL       0.0670
      7 O1         -5.7991   -0.6016   15.1980 O.2         1 EZL      -0.1431
      8 O2         -4.1841   -0.9060   13.2502 O.2         1 EZL      -0.1431
      9 S1         -4.4986   -0.0005   14.5160 S.o2        1 EZL       0.1041
     10 C1         -4.8243    1.6482   14.1160 C.2         1 EZL       0.2500
     11 N2         -5.7966    2.3930   14.6787 N.2         1 EZL      -0.2771
     12 S2         -3.9598    2.6002   12.9740 S.3         1 EZL       0.0259
     13 C6         -6.7187    5.9365   14.1309 C.ar        1 EZL      -0.0391
     14 C7         -6.7722    4.6344   14.6677 C.ar        1 EZL      -0.0596
     15 O3         -5.8065    7.5040   12.5423 O.3         1 EZL      -0.3212
     16 C9         -8.2128    7.8401   11.8985 C.3         1 EZL      -0.0372
     17 H1         -3.5153   -0.6560   16.5076 H           1 EZL       0.1640
     18 H2         -2.3940   -0.0412   15.4315 H           1 EZL       0.1640
     19 H3         -4.1666    5.5073   11.9557 H           1 EZL       0.0487
     20 H4         -6.6609    6.8874   10.7079 H           1 EZL       0.0610
     21 H5         -6.4533    8.6050   10.9537 H           1 EZL       0.0610
     22 H6         -7.3639    6.6497   14.4777 H           1 EZL       0.0502
     23 H7         -7.4698    4.3959   15.3759 H           1 EZL       0.0565
     24 H8         -8.8240    8.1512   11.0545 H           1 EZL       0.0255
     25 H9         -8.2868    8.5943   12.6810 H           1 EZL       0.0255
     26 H10        -8.6023    6.8977   12.2856 H           1 EZL       0.0255
@<TRIPOS>BOND
     1     9     1  am
     2     2     3  ar
     3    11     2   1
     4     2    14  ar
     5     3     4  ar
     6     3    12   1
     7     4     5  ar
     8     5    13  ar
     9     5    15   1
    10    15     6   1
    11     6    16   1
    12     9     7   2
    13     9     8   2
    14    10     9   1
    15    10    11   2
    16    10    12   1
    17    13    14  ar
    18     1    17   1
    19     1    18   1
    20     4    19   1
    21     6    20   1
    22     6    21   1
    23    13    22   1
    24    14    23   1
    25    16    24   1
    26    16    25   1
    27    16    26   1
@<TRIPOS>SUBSTRUCTURE
     1  EZL      2

