@<TRIPOS>MOLECULE
3dd0_ligand_013
    26    27
SMALL
GAST_HUCK
****
This file was generated by PARSER (from files_GN.cpp)

@<TRIPOS>ATOM
      1 N1         -6.7600    2.6110   19.0157 N.am        1 EZL      -0.2548
      2 C2         -5.3701    1.3114   14.2442 C.ar        1 EZL       0.0296
      3 C3         -4.8618    0.2593   15.0230 C.ar        1 EZL       0.0510
      4 C4         -4.1062   -0.7815   14.4630 C.ar        1 EZL      -0.0189
      5 C5         -3.8542   -0.7678   13.0741 C.ar        1 EZL       0.0844
      6 C8         -3.8462   -2.5996   11.5725 C.3         1 EZL       0.0670
      7 O1         -6.6973    4.5046   17.1434 O.2         1 EZL      -0.1431
      8 O2         -8.6134    2.8919   17.1364 O.2         1 EZL      -0.1431
      9 S1         -7.0485    2.9758   17.3995 S.o2        1 EZL       0.1041
     10 C1         -6.2039    1.9877   16.2582 C.2         1 EZL       0.2500
     11 N2         -6.0937    2.2321   14.9333 N.2         1 EZL      -0.2771
     12 S2         -5.3538    0.5438   16.6419 S.3         1 EZL       0.0259
     13 C6         -4.3196    0.3170   12.2891 C.ar        1 EZL      -0.0391
     14 C7         -5.0926    1.3464   12.8657 C.ar        1 EZL      -0.0596
     15 O3         -3.1330   -1.8041   12.5398 O.3         1 EZL      -0.3212
     16 C9         -3.0679   -3.9020   11.3127 C.3         1 EZL      -0.0372
     17 H1         -6.0808    3.0960   19.5097 H           1 EZL       0.1640
     18 H2         -7.1858    1.8369   19.4163 H           1 EZL       0.1640
     19 H3         -3.7453   -1.5336   15.0549 H           1 EZL       0.0487
     20 H4         -3.9255   -2.0463   10.6339 H           1 EZL       0.0610
     21 H5         -4.8532   -2.8587   11.9187 H           1 EZL       0.0610
     22 H6         -4.1013    0.3548   11.2926 H           1 EZL       0.0502
     23 H7         -5.4382    2.1153   12.2871 H           1 EZL       0.0565
     24 H8         -3.5766   -4.4965   10.5551 H           1 EZL       0.0255
     25 H9         -2.9988   -4.4930   12.2272 H           1 EZL       0.0255
     26 H10        -2.0619   -3.6771   10.9583 H           1 EZL       0.0255
@<TRIPOS>BOND
     1     9     1  am
     2     2     3  ar
     3    11     2   1
     4     2    14  ar
     5     3     4  ar
     6     3    12   1
     7     4     5  ar
     8     5    13  ar
     9     5    15   1
    10    15     6   1
    11     6    16   1
    12     9     7   2
    13     9     8   2
    14    10     9   1
    15    10    11   2
    16    10    12   1
    17    13    14  ar
    18     1    17   1
    19     1    18   1
    20     4    19   1
    21     6    20   1
    22     6    21   1
    23    13    22   1
    24    14    23   1
    25    16    24   1
    26    16    25   1
    27    16    26   1
@<TRIPOS>SUBSTRUCTURE
     1  EZL      2

