@<TRIPOS>MOLECULE
3dd0_ligand_032
    26    27
SMALL
GAST_HUCK
****
This file was generated by PARSER (from files_GN.cpp)

@<TRIPOS>ATOM
      1 N1         -4.9711    1.6213   10.5369 N.am        1 EZL      -0.2548
      2 C2         -6.4259    1.9412   14.8571 C.ar        1 EZL       0.0296
      3 C3         -6.0941    0.8092   15.6164 C.ar        1 EZL       0.0510
      4 C4         -6.5749    0.6188   16.9185 C.ar        1 EZL      -0.0189
      5 C5         -7.3925    1.6194   17.4849 C.ar        1 EZL       0.0844
      6 C8         -7.1948    2.3002   19.7439 C.3         1 EZL       0.0670
      7 O1         -2.8691    0.9177   12.0159 O.2         1 EZL      -0.1431
      8 O2         -4.4817   -0.9040   11.3239 O.2         1 EZL      -0.1431
      9 S1         -4.4116    0.6213   11.7665 S.o2        1 EZL       0.1041
     10 C1         -5.1727    0.8818   13.2889 C.2         1 EZL       0.2500
     11 N2         -5.9265    1.9579   13.5951 N.2         1 EZL      -0.2771
     12 S2         -5.0923   -0.1809   14.6400 S.3         1 EZL       0.0259
     13 C6         -7.7236    2.7728   16.7337 C.ar        1 EZL      -0.0391
     14 C7         -7.2411    2.9369   15.4176 C.ar        1 EZL      -0.0596
     15 O3         -7.8358    1.4502   18.7685 O.3         1 EZL      -0.3212
     16 C9         -5.6575    2.1809   19.7935 C.3         1 EZL      -0.0372
     17 H1         -4.4838    2.4279   10.3094 H           1 EZL       0.1640
     18 H2         -5.7906    1.3970   10.0635 H           1 EZL       0.1640
     19 H3         -6.3409   -0.2294   17.4354 H           1 EZL       0.0487
     20 H4         -7.5851    2.0135   20.7206 H           1 EZL       0.0610
     21 H5         -7.4618    3.3486   19.5820 H           1 EZL       0.0610
     22 H6         -8.3166    3.4973   17.1434 H           1 EZL       0.0502
     23 H7         -7.4809    3.7704   14.8740 H           1 EZL       0.0565
     24 H8         -5.2805    2.7273   20.6543 H           1 EZL       0.0255
     25 H9         -5.2265    2.6118   18.8870 H           1 EZL       0.0255
     26 H10        -5.3500    1.1367   19.8721 H           1 EZL       0.0255
@<TRIPOS>BOND
     1     9     1  am
     2     2     3  ar
     3    11     2   1
     4     2    14  ar
     5     3     4  ar
     6     3    12   1
     7     4     5  ar
     8     5    13  ar
     9     5    15   1
    10    15     6   1
    11     6    16   1
    12     9     7   2
    13     9     8   2
    14    10     9   1
    15    10    11   2
    16    10    12   1
    17    13    14  ar
    18     1    17   1
    19     1    18   1
    20     4    19   1
    21     6    20   1
    22     6    21   1
    23    13    22   1
    24    14    23   1
    25    16    24   1
    26    16    25   1
    27    16    26   1
@<TRIPOS>SUBSTRUCTURE
     1  EZL      2

