@<TRIPOS>MOLECULE
3dd0_ligand_017
    26    27
SMALL
GAST_HUCK
****
This file was generated by PARSER (from files_GN.cpp)

@<TRIPOS>ATOM
      1 N1         -3.5347   -0.7707   15.3547 N.am        1 EZL      -0.2548
      2 C2         -4.8380    3.6695   13.3822 C.ar        1 EZL       0.0296
      3 C3         -4.6503    2.8720   12.2384 C.ar        1 EZL       0.0510
      4 C4         -4.6000    3.4162   10.9489 C.ar        1 EZL      -0.0189
      5 C5         -4.6959    4.8164   10.7938 C.ar        1 EZL       0.0844
      6 C8         -3.4506    5.2801    8.8124 C.3         1 EZL       0.0670
      7 O1         -4.2909    1.0937   17.0801 O.2         1 EZL      -0.1431
      8 O2         -6.0514   -0.2598   15.8288 O.2         1 EZL      -0.1431
      9 S1         -4.6402    0.4528   15.6703 S.o2        1 EZL       0.1041
     10 C1         -4.6893    1.6430   14.4182 C.2         1 EZL       0.2500
     11 N2         -4.8544    2.9780   14.5537 N.2         1 EZL      -0.2771
     12 S2         -4.5165    1.2459   12.7535 S.3         1 EZL       0.0259
     13 C6         -4.9142    5.6270   11.9339 C.ar        1 EZL      -0.0391
     14 C7         -4.9858    5.0576   13.2262 C.ar        1 EZL      -0.0596
     15 O3         -4.6970    5.3722    9.5413 O.3         1 EZL      -0.3212
     16 C9         -3.7217    5.5548    7.3160 C.3         1 EZL      -0.0372
     17 H1         -2.7537   -0.8662   15.9146 H           1 EZL       0.1640
     18 H2         -3.7536   -1.4657   14.7165 H           1 EZL       0.1640
     19 H3         -4.4902    2.8005   10.1395 H           1 EZL       0.0487
     20 H4         -2.9929    4.2845    8.9009 H           1 EZL       0.0610
     21 H5         -2.7394    6.0181    9.1899 H           1 EZL       0.0610
     22 H6         -5.0348    6.6374   11.8187 H           1 EZL       0.0502
     23 H7         -5.1532    5.6535   14.0400 H           1 EZL       0.0565
     24 H8         -2.8236    5.3621    6.7194 H           1 EZL       0.0255
     25 H9         -4.0219    6.5944    7.1741 H           1 EZL       0.0255
     26 H10        -4.5270    4.8996    6.9595 H           1 EZL       0.0255
@<TRIPOS>BOND
     1     9     1  am
     2     2     3  ar
     3    11     2   1
     4     2    14  ar
     5     3     4  ar
     6     3    12   1
     7     4     5  ar
     8     5    13  ar
     9     5    15   1
    10    15     6   1
    11     6    16   1
    12     9     7   2
    13     9     8   2
    14    10     9   1
    15    10    11   2
    16    10    12   1
    17    13    14  ar
    18     1    17   1
    19     1    18   1
    20     4    19   1
    21     6    20   1
    22     6    21   1
    23    13    22   1
    24    14    23   1
    25    16    24   1
    26    16    25   1
    27    16    26   1
@<TRIPOS>SUBSTRUCTURE
     1  EZL      2

