@<TRIPOS>MOLECULE
3dd0_ligand_022
    26    27
SMALL
GAST_HUCK
****
This file was generated by PARSER (from files_GN.cpp)

@<TRIPOS>ATOM
      1 N1         -2.2331    3.1112   15.9806 N.am        1 EZL      -0.2548
      2 C2         -4.7911    4.7199   12.2180 C.ar        1 EZL       0.0296
      3 C3         -5.4048    5.7835   12.9023 C.ar        1 EZL       0.0510
      4 C4         -6.0082    6.8540   12.2155 C.ar        1 EZL      -0.0189
      5 C5         -6.0131    6.8384   10.8004 C.ar        1 EZL       0.0844
      6 C8         -8.0242    7.7085    9.9354 C.3         1 EZL       0.0670
      7 O1         -4.7305    2.9898   16.9008 O.2         1 EZL      -0.1431
      8 O2         -4.0085    1.3924   15.0878 O.2         1 EZL      -0.1431
      9 S1         -3.8454    2.8992   15.5819 S.o2        1 EZL       0.1041
     10 C1         -4.4104    3.9651   14.3380 C.2         1 EZL       0.2500
     11 N2         -4.2604    3.7552   13.0103 N.2         1 EZL      -0.2771
     12 S2         -5.2514    5.4462   14.5796 S.3         1 EZL       0.0259
     13 C6         -5.3851    5.7763   10.1114 C.ar        1 EZL      -0.0391
     14 C7         -4.7743    4.7186   10.8147 C.ar        1 EZL      -0.0596
     15 O3         -6.5938    7.8563   10.0897 O.3         1 EZL      -0.3212
     16 C9         -8.5698    8.7912    8.9822 C.3         1 EZL      -0.0372
     17 H1         -1.9649    3.8497   16.5541 H           1 EZL       0.1640
     18 H2         -1.5565    2.5623   15.5562 H           1 EZL       0.1640
     19 H3         -6.4551    7.6153   12.7327 H           1 EZL       0.0487
     20 H4         -8.5255    7.8189   10.9086 H           1 EZL       0.0610
     21 H5         -8.2717    6.7287    9.5132 H           1 EZL       0.0610
     22 H6         -5.3824    5.7670    9.0913 H           1 EZL       0.0502
     23 H7         -4.3292    3.9534   10.3108 H           1 EZL       0.0565
     24 H8         -9.6463    8.6677    8.8636 H           1 EZL       0.0255
     25 H9         -8.0937    8.7050    8.0026 H           1 EZL       0.0255
     26 H10        -8.3731    9.7896    9.3882 H           1 EZL       0.0255
@<TRIPOS>BOND
     1     9     1  am
     2     2     3  ar
     3    11     2   1
     4     2    14  ar
     5     3     4  ar
     6     3    12   1
     7     4     5  ar
     8     5    13  ar
     9     5    15   1
    10    15     6   1
    11     6    16   1
    12     9     7   2
    13     9     8   2
    14    10     9   1
    15    10    11   2
    16    10    12   1
    17    13    14  ar
    18     1    17   1
    19     1    18   1
    20     4    19   1
    21     6    20   1
    22     6    21   1
    23    13    22   1
    24    14    23   1
    25    16    24   1
    26    16    25   1
    27    16    26   1
@<TRIPOS>SUBSTRUCTURE
     1  EZL      2

