@<TRIPOS>MOLECULE
3dd0_ligand_015
    26    27
SMALL
GAST_HUCK
****
This file was generated by PARSER (from files_GN.cpp)

@<TRIPOS>ATOM
      1 N1         -1.2404    4.1231    9.9432 N.am        1 EZL      -0.2548
      2 C2         -5.1525    4.4841   13.0335 C.ar        1 EZL       0.0296
      3 C3         -5.0185    3.0840   13.0250 C.ar        1 EZL       0.0510
      4 C4         -5.6705    2.2529   13.9544 C.ar        1 EZL      -0.0189
      5 C5         -6.4691    2.8549   14.9521 C.ar        1 EZL       0.0844
      6 C8         -6.5088    1.0533   16.5478 C.3         1 EZL       0.0670
      7 O1         -3.4795    4.2207    8.5547 O.2         1 EZL      -0.1431
      8 O2         -2.7063    6.3557    9.7084 O.2         1 EZL      -0.1431
      9 S1         -2.7876    4.7767    9.8736 S.o2        1 EZL       0.1041
     10 C1         -3.7660    4.3123   11.2231 C.2         1 EZL       0.2500
     11 N2         -4.4618    5.1307   12.0528 N.2         1 EZL      -0.2771
     12 S2         -3.9922    2.6791   11.7113 S.3         1 EZL       0.0259
     13 C6         -6.6197    4.2656   14.9632 C.ar        1 EZL      -0.0391
     14 C7         -5.9674    5.0818   14.0143 C.ar        1 EZL      -0.0596
     15 O3         -7.2000    2.1143   15.8530 O.3         1 EZL      -0.3212
     16 C9         -7.4840    0.3535   17.5203 C.3         1 EZL      -0.0372
     17 H1         -1.0756    3.2473    9.5633 H           1 EZL       0.1640
     18 H2         -0.5894    4.5166   10.5418 H           1 EZL       0.1640
     19 H3         -5.5826    1.2341   13.8884 H           1 EZL       0.0487
     20 H4         -5.6673    1.4426   17.1322 H           1 EZL       0.0610
     21 H5         -6.1373    0.3196   15.8212 H           1 EZL       0.0610
     22 H6         -7.2242    4.7004   15.6635 H           1 EZL       0.0502
     23 H7         -6.0959    6.0895   14.0276 H           1 EZL       0.0565
     24 H8         -7.0179   -0.5356   17.9538 H           1 EZL       0.0255
     25 H9         -8.3929    0.0419   17.0005 H           1 EZL       0.0255
     26 H10        -7.7603    1.0329   18.3318 H           1 EZL       0.0255
@<TRIPOS>BOND
     1     9     1  am
     2     2     3  ar
     3    11     2   1
     4     2    14  ar
     5     3     4  ar
     6     3    12   1
     7     4     5  ar
     8     5    13  ar
     9     5    15   1
    10    15     6   1
    11     6    16   1
    12     9     7   2
    13     9     8   2
    14    10     9   1
    15    10    11   2
    16    10    12   1
    17    13    14  ar
    18     1    17   1
    19     1    18   1
    20     4    19   1
    21     6    20   1
    22     6    21   1
    23    13    22   1
    24    14    23   1
    25    16    24   1
    26    16    25   1
    27    16    26   1
@<TRIPOS>SUBSTRUCTURE
     1  EZL      2

