@<TRIPOS>MOLECULE
3dd0_ligand_019
    26    27
SMALL
GAST_HUCK
****
This file was generated by PARSER (from files_GN.cpp)

@<TRIPOS>ATOM
      1 N1          2.5457    6.8333   10.9650 N.am        1 EZL      -0.2548
      2 C2         -1.6026    4.4739   12.2429 C.ar        1 EZL       0.0296
      3 C3         -1.6245    3.9164   10.9536 C.ar        1 EZL       0.0510
      4 C4         -2.7797    3.3275   10.4192 C.ar        1 EZL      -0.0189
      5 C5         -3.9467    3.2713   11.2125 C.ar        1 EZL       0.0844
      6 C8         -5.5976    1.5370   11.3399 C.3         1 EZL       0.0670
      7 O1          2.5298    5.7856   13.3920 O.2         1 EZL      -0.1431
      8 O2          3.2284    4.3215   11.4490 O.2         1 EZL      -0.1431
      9 S1          2.2011    5.4592   11.8681 S.o2        1 EZL       0.1041
     10 C1          0.5692    4.9097   11.6932 C.2         1 EZL       0.2500
     11 N2         -0.4113    5.0084   12.6194 N.2         1 EZL      -0.2771
     12 S2         -0.0573    4.1307   10.2932 S.3         1 EZL       0.0259
     13 C6         -3.9425    3.8555   12.5041 C.ar        1 EZL      -0.0391
     14 C7         -2.7721    4.4488   13.0230 C.ar        1 EZL      -0.0596
     15 O3         -5.0753    2.7085   10.6786 O.3         1 EZL      -0.3212
     16 C9         -4.7324    0.2660   11.1872 C.3         1 EZL      -0.0372
     17 H1          2.4686    7.7121   11.3696 H           1 EZL       0.1640
     18 H2          2.7795    6.7495   10.0265 H           1 EZL       0.1640
     19 H3         -2.7721    2.9444    9.4722 H           1 EZL       0.0487
     20 H4         -6.5749    1.3318   10.8927 H           1 EZL       0.0610
     21 H5         -5.7669    1.7288   12.4041 H           1 EZL       0.0610
     22 H6         -4.7929    3.8541   13.0688 H           1 EZL       0.0502
     23 H7         -2.7755    4.8608   13.9594 H           1 EZL       0.0565
     24 H8         -5.2530   -0.5909   11.6216 H           1 EZL       0.0255
     25 H9         -3.7794    0.3922   11.7073 H           1 EZL       0.0255
     26 H10        -4.5412    0.0646   10.1318 H           1 EZL       0.0255
@<TRIPOS>BOND
     1     9     1  am
     2     2     3  ar
     3    11     2   1
     4     2    14  ar
     5     3     4  ar
     6     3    12   1
     7     4     5  ar
     8     5    13  ar
     9     5    15   1
    10    15     6   1
    11     6    16   1
    12     9     7   2
    13     9     8   2
    14    10     9   1
    15    10    11   2
    16    10    12   1
    17    13    14  ar
    18     1    17   1
    19     1    18   1
    20     4    19   1
    21     6    20   1
    22     6    21   1
    23    13    22   1
    24    14    23   1
    25    16    24   1
    26    16    25   1
    27    16    26   1
@<TRIPOS>SUBSTRUCTURE
     1  EZL      2

