@<TRIPOS>MOLECULE
3dd0_ligand_020
    26    27
SMALL
GAST_HUCK
****
This file was generated by PARSER (from files_GN.cpp)

@<TRIPOS>ATOM
      1 N1         -2.7262    6.8407    8.2151 N.am        1 EZL      -0.2548
      2 C2         -4.6870    3.5187   11.5243 C.ar        1 EZL       0.0296
      3 C3         -4.3262    4.5126   12.4432 C.ar        1 EZL       0.0510
      4 C4         -4.3460    4.2693   13.8287 C.ar        1 EZL      -0.0189
      5 C5         -4.7473    2.9903   14.2876 C.ar        1 EZL       0.0844
      6 C8         -3.8241    1.8747   16.1618 C.3         1 EZL       0.0670
      7 O1         -3.9719    4.6710    7.3916 O.2         1 EZL      -0.1431
      8 O2         -5.3875    6.6662    8.0098 O.2         1 EZL      -0.1431
      9 S1         -4.0773    5.8658    8.4331 S.o2        1 EZL       0.1041
     10 C1         -4.2348    5.1616   10.0077 C.2         1 EZL       0.2500
     11 N2         -4.6407    3.8910   10.2239 N.2         1 EZL      -0.2771
     12 S2         -3.9263    5.9110   11.5248 S.3         1 EZL       0.0259
     13 C6         -5.1428    2.0007   13.3605 C.ar        1 EZL      -0.0391
     14 C7         -5.1046    2.2612   11.9777 C.ar        1 EZL      -0.0596
     15 O3         -4.8419    2.7423   15.6205 O.3         1 EZL      -0.3212
     16 C9         -3.9386    0.4016   15.7036 C.3         1 EZL      -0.0372
     17 H1         -1.9178    6.4577    7.8384 H           1 EZL       0.1640
     18 H2         -2.7064    7.7282    8.6059 H           1 EZL       0.1640
     19 H3         -4.0850    5.0112   14.4898 H           1 EZL       0.0487
     20 H4         -3.9452    1.9020   17.2442 H           1 EZL       0.0610
     21 H5         -2.8220    2.2523   15.9420 H           1 EZL       0.0610
     22 H6         -5.4491    1.0906   13.6981 H           1 EZL       0.0502
     23 H7         -5.4106    1.5456   11.3089 H           1 EZL       0.0565
     24 H8         -3.3340   -0.2475   16.3403 H           1 EZL       0.0255
     25 H9         -3.6057    0.2981   14.6679 H           1 EZL       0.0255
     26 H10        -4.9655    0.0598   15.7653 H           1 EZL       0.0255
@<TRIPOS>BOND
     1     9     1  am
     2     2     3  ar
     3    11     2   1
     4     2    14  ar
     5     3     4  ar
     6     3    12   1
     7     4     5  ar
     8     5    13  ar
     9     5    15   1
    10    15     6   1
    11     6    16   1
    12     9     7   2
    13     9     8   2
    14    10     9   1
    15    10    11   2
    16    10    12   1
    17    13    14  ar
    18     1    17   1
    19     1    18   1
    20     4    19   1
    21     6    20   1
    22     6    21   1
    23    13    22   1
    24    14    23   1
    25    16    24   1
    26    16    25   1
    27    16    26   1
@<TRIPOS>SUBSTRUCTURE
     1  EZL      2

