@<TRIPOS>MOLECULE
3dd0_ligand_035
    26    27
SMALL
GAST_HUCK
****
This file was generated by PARSER (from files_GN.cpp)

@<TRIPOS>ATOM
      1 N1          1.6013    6.0722    9.8398 N.am        1 EZL      -0.2548
      2 C2         -1.0009    4.0415   13.6999 C.ar        1 EZL       0.0296
      3 C3         -1.8050    3.6123   12.6302 C.ar        1 EZL       0.0510
      4 C4         -3.0653    3.0363   12.8401 C.ar        1 EZL      -0.0189
      5 C5         -3.5198    2.8512   14.1665 C.ar        1 EZL       0.0844
      6 C8         -4.7500    0.8397   14.2392 C.3         1 EZL       0.0670
      7 O1          2.5380    6.2668   12.2913 O.2         1 EZL      -0.1431
      8 O2          2.9493    4.1142   11.0575 O.2         1 EZL      -0.1431
      9 S1          1.8546    5.2453   11.2788 S.o2        1 EZL       0.1041
     10 C1          0.4221    4.6120   12.0119 C.2         1 EZL       0.2500
     11 N2          0.1921    4.5802   13.3446 N.2         1 EZL      -0.2771
     12 S2         -0.9341    3.9496   11.1878 S.3         1 EZL       0.0259
     13 C6         -2.7320    3.3110   15.2510 C.ar        1 EZL      -0.0391
     14 C7         -1.4664    3.8894   15.0235 C.ar        1 EZL      -0.0596
     15 O3         -4.7340    2.2750   14.4078 O.3         1 EZL      -0.3212
     16 C9         -4.1926    0.0747   15.4593 C.3         1 EZL      -0.0372
     17 H1          1.5190    7.0388    9.8446 H           1 EZL       0.1640
     18 H2          1.4660    5.5802    9.0151 H           1 EZL       0.1640
     19 H3         -3.6258    2.7236   12.0442 H           1 EZL       0.0487
     20 H4         -4.2208    0.5191   13.3362 H           1 EZL       0.0610
     21 H5         -5.7891    0.5478   14.1175 H           1 EZL       0.0610
     22 H6         -3.0661    3.2004   16.2094 H           1 EZL       0.0502
     23 H7         -0.8820    4.1933   15.8120 H           1 EZL       0.0565
     24 H8         -4.1223   -0.9934   15.2315 H           1 EZL       0.0255
     25 H9         -4.8521    0.2063   16.3201 H           1 EZL       0.0255
     26 H10        -3.1958    0.4364   15.7203 H           1 EZL       0.0255
@<TRIPOS>BOND
     1     9     1  am
     2     2     3  ar
     3    11     2   1
     4     2    14  ar
     5     3     4  ar
     6     3    12   1
     7     4     5  ar
     8     5    13  ar
     9     5    15   1
    10    15     6   1
    11     6    16   1
    12     9     7   2
    13     9     8   2
    14    10     9   1
    15    10    11   2
    16    10    12   1
    17    13    14  ar
    18     1    17   1
    19     1    18   1
    20     4    19   1
    21     6    20   1
    22     6    21   1
    23    13    22   1
    24    14    23   1
    25    16    24   1
    26    16    25   1
    27    16    26   1
@<TRIPOS>SUBSTRUCTURE
     1  EZL      2

