@<TRIPOS>MOLECULE
3dd0_ligand_006
    26    27
SMALL
GAST_HUCK
****
This file was generated by PARSER (from files_GN.cpp)

@<TRIPOS>ATOM
      1 N1         -6.6902    1.0466   18.7799 N.am        1 EZL      -0.2548
      2 C2         -4.7114    4.2918   15.6433 C.ar        1 EZL       0.0296
      3 C3         -3.4988    3.5985   15.7883 C.ar        1 EZL       0.0510
      4 C4         -2.2703    4.1614   15.4068 C.ar        1 EZL      -0.0189
      5 C5         -2.2664    5.4612   14.8535 C.ar        1 EZL       0.0844
      6 C8         -0.7919    5.8872   13.0726 C.3         1 EZL       0.0670
      7 O1         -8.2202    1.7601   16.7493 O.2         1 EZL      -0.1431
      8 O2         -6.5992   -0.1583   16.4151 O.2         1 EZL      -0.1431
      9 S1         -6.7556    1.2614   17.1143 S.o2        1 EZL       0.1041
     10 C1         -5.5685    2.3746   16.5281 C.2         1 EZL       0.2500
     11 N2         -5.8166    3.6133   16.0475 N.2         1 EZL      -0.2771
     12 S2         -3.8770    2.0701   16.4687 S.3         1 EZL       0.0259
     13 C6         -3.4806    6.1783   14.7252 C.ar        1 EZL      -0.0391
     14 C7         -4.7045    5.5949   15.1129 C.ar        1 EZL      -0.0596
     15 O3         -1.0804    6.0285   14.4779 O.3         1 EZL      -0.3212
     16 C9          0.6083    6.4545   12.7718 C.3         1 EZL      -0.0372
     17 H1         -7.2943    1.5405   19.3552 H           1 EZL       0.1640
     18 H2         -6.0260    0.4552   19.1678 H           1 EZL       0.1640
     19 H3         -1.4023    3.6355   15.5208 H           1 EZL       0.0487
     20 H4         -1.5282    6.4401   12.4801 H           1 EZL       0.0610
     21 H5         -0.8087    4.8345   12.7722 H           1 EZL       0.0610
     22 H6         -3.4741    7.1256   14.3413 H           1 EZL       0.0502
     23 H7         -5.5791    6.1157   15.0091 H           1 EZL       0.0565
     24 H8          0.8047    6.4014   11.6989 H           1 EZL       0.0255
     25 H9          1.3677    5.8737   13.2972 H           1 EZL       0.0255
     26 H10         0.6719    7.4978   13.0892 H           1 EZL       0.0255
@<TRIPOS>BOND
     1     9     1  am
     2     2     3  ar
     3    11     2   1
     4     2    14  ar
     5     3     4  ar
     6     3    12   1
     7     4     5  ar
     8     5    13  ar
     9     5    15   1
    10    15     6   1
    11     6    16   1
    12     9     7   2
    13     9     8   2
    14    10     9   1
    15    10    11   2
    16    10    12   1
    17    13    14  ar
    18     1    17   1
    19     1    18   1
    20     4    19   1
    21     6    20   1
    22     6    21   1
    23    13    22   1
    24    14    23   1
    25    16    24   1
    26    16    25   1
    27    16    26   1
@<TRIPOS>SUBSTRUCTURE
     1  EZL      2

