@<TRIPOS>MOLECULE
3dd0_ligand_024
    26    27
SMALL
GAST_HUCK
****
This file was generated by PARSER (from files_GN.cpp)

@<TRIPOS>ATOM
      1 N1         -5.9628    7.5351    6.4633 N.am        1 EZL      -0.2548
      2 C2         -4.0147    4.4267    9.9681 C.ar        1 EZL       0.0296
      3 C3         -4.4787    5.4072   10.8559 C.ar        1 EZL       0.0510
      4 C4         -4.5430    5.1810   12.2449 C.ar        1 EZL      -0.0189
      5 C5         -4.1317    3.9230   12.7420 C.ar        1 EZL       0.0844
      6 C8         -2.9505    3.7016   14.7948 C.3         1 EZL       0.0670
      7 O1         -3.3720    7.8559    6.7543 O.2         1 EZL      -0.1431
      8 O2         -4.1662    5.7202    5.7004 O.2         1 EZL      -0.1431
      9 S1         -4.5229    6.7631    6.8476 S.o2        1 EZL       0.1041
     10 C1         -4.4533    6.0282    8.4134 C.2         1 EZL       0.2500
     11 N2         -4.0104    4.7748    8.6564 N.2         1 EZL      -0.2771
     12 S2         -4.8859    6.7715    9.9029 S.3         1 EZL       0.0259
     13 C6         -3.6855    2.9216   11.8449 C.ar        1 EZL      -0.0391
     14 C7         -3.6187    3.1732   10.4620 C.ar        1 EZL      -0.0596
     15 O3         -4.2008    3.6399   14.0790 O.3         1 EZL      -0.3212
     16 C9         -3.0186    2.7334   15.9871 C.3         1 EZL      -0.0372
     17 H1         -6.0200    8.4977    6.5448 H           1 EZL       0.1640
     18 H2         -6.6489    7.0593    5.9691 H           1 EZL       0.1640
     19 H3         -4.8781    5.9115   12.8752 H           1 EZL       0.0487
     20 H4         -2.7924    4.7235   15.1454 H           1 EZL       0.0610
     21 H5         -2.0826    3.4095   14.1976 H           1 EZL       0.0610
     22 H6         -3.3894    2.0125   12.2054 H           1 EZL       0.0502
     23 H7         -3.2803    2.4548    9.8216 H           1 EZL       0.0565
     24 H8         -2.0594    2.7275   16.5039 H           1 EZL       0.0255
     25 H9         -3.2290    1.7235   15.6329 H           1 EZL       0.0255
     26 H10        -3.7994    3.0328   16.6857 H           1 EZL       0.0255
@<TRIPOS>BOND
     1     9     1  am
     2     2     3  ar
     3    11     2   1
     4     2    14  ar
     5     3     4  ar
     6     3    12   1
     7     4     5  ar
     8     5    13  ar
     9     5    15   1
    10    15     6   1
    11     6    16   1
    12     9     7   2
    13     9     8   2
    14    10     9   1
    15    10    11   2
    16    10    12   1
    17    13    14  ar
    18     1    17   1
    19     1    18   1
    20     4    19   1
    21     6    20   1
    22     6    21   1
    23    13    22   1
    24    14    23   1
    25    16    24   1
    26    16    25   1
    27    16    26   1
@<TRIPOS>SUBSTRUCTURE
     1  EZL      2

