@<TRIPOS>MOLECULE
3dd0_ligand_003
    26    27
SMALL
GAST_HUCK
****
This file was generated by PARSER (from files_GN.cpp)

@<TRIPOS>ATOM
      1 N1         -6.3129    1.8206   20.0711 N.am        1 EZL      -0.2548
      2 C2         -4.0544    2.8112   16.0215 C.ar        1 EZL       0.0296
      3 C3         -5.1350    3.3540   15.3122 C.ar        1 EZL       0.0510
      4 C4         -4.9621    4.1461   14.1704 C.ar        1 EZL      -0.0189
      5 C5         -3.6491    4.3671   13.6937 C.ar        1 EZL       0.0844
      6 C8         -3.9271    4.5244   11.3198 C.3         1 EZL       0.0670
      7 O1         -8.0250    0.8628   18.3010 O.2         1 EZL      -0.1431
      8 O2         -5.8624   -0.4020   18.6830 O.2         1 EZL      -0.1431
      9 S1         -6.4739    1.0631   18.5815 S.o2        1 EZL       0.1041
     10 C1         -5.7284    1.9425   17.2941 C.2         1 EZL       0.2500
     11 N2         -4.3963    2.0436   17.0897 N.2         1 EZL      -0.2771
     12 S2         -6.5706    2.8389   16.0943 S.3         1 EZL       0.0259
     13 C6         -2.5464    3.8561   14.4220 C.ar        1 EZL      -0.0391
     14 C7         -2.7427    3.0816   15.5863 C.ar        1 EZL      -0.0596
     15 O3         -3.4256    5.0930   12.5504 O.3         1 EZL      -0.3212
     16 C9         -3.2248    3.2200   10.8844 C.3         1 EZL      -0.0372
     17 H1         -7.0509    2.3405   20.4312 H           1 EZL       0.1640
     18 H2         -5.5407    1.6345   20.6287 H           1 EZL       0.1640
     19 H3         -5.7723    4.5242   13.6783 H           1 EZL       0.0487
     20 H4         -3.7591    5.2705   10.5390 H           1 EZL       0.0610
     21 H5         -5.0081    4.3572   11.3679 H           1 EZL       0.0610
     22 H6         -1.5925    4.0335   14.0940 H           1 EZL       0.0502
     23 H7         -1.9436    2.7042   16.0974 H           1 EZL       0.0565
     24 H8         -3.6477    2.8663    9.9460 H           1 EZL       0.0255
     25 H9         -3.3582    2.4433   11.6409 H           1 EZL       0.0255
     26 H10        -2.1572    3.3989   10.7469 H           1 EZL       0.0255
@<TRIPOS>BOND
     1     9     1  am
     2     2     3  ar
     3    11     2   1
     4     2    14  ar
     5     3     4  ar
     6     3    12   1
     7     4     5  ar
     8     5    13  ar
     9     5    15   1
    10    15     6   1
    11     6    16   1
    12     9     7   2
    13     9     8   2
    14    10     9   1
    15    10    11   2
    16    10    12   1
    17    13    14  ar
    18     1    17   1
    19     1    18   1
    20     4    19   1
    21     6    20   1
    22     6    21   1
    23    13    22   1
    24    14    23   1
    25    16    24   1
    26    16    25   1
    27    16    26   1
@<TRIPOS>SUBSTRUCTURE
     1  EZL      2

