@<TRIPOS>MOLECULE
3dd0_ligand_000
    26    27
SMALL
GAST_HUCK
****
This file was generated by PARSER (from files_GN.cpp)

@<TRIPOS>ATOM
      1 N1         -1.5875    3.9183   10.3350 N.am        1 EZL      -0.2548
      2 C2         -4.0464    2.6696   14.3439 C.ar        1 EZL       0.0296
      3 C3         -4.4922    1.4708   13.7627 C.ar        1 EZL       0.0510
      4 C4         -5.0372    0.4356   14.5330 C.ar        1 EZL      -0.0189
      5 C5         -5.1809    0.6090   15.9301 C.ar        1 EZL       0.0844
      6 C8         -6.4580   -0.2360   17.8662 C.3         1 EZL       0.0670
      7 O1         -4.1601    3.8948    9.6151 O.2         1 EZL      -0.1431
      8 O2         -3.3422    5.7443   11.1599 O.2         1 EZL      -0.1431
      9 S1         -3.1710    4.1973   10.8239 S.o2        1 EZL       0.1041
     10 C1         -3.6490    3.2265   12.1716 C.2         1 EZL       0.2500
     11 N2         -3.5940    3.6030   13.4685 N.2         1 EZL      -0.2771
     12 S2         -4.2939    1.6353   12.0670 S.3         1 EZL       0.0259
     13 C6         -4.6964    1.8014   16.5214 C.ar        1 EZL      -0.0391
     14 C7         -4.1279    2.8304   15.7345 C.ar        1 EZL      -0.0596
     15 O3         -5.8102   -0.4276   16.5917 O.3         1 EZL      -0.3212
     16 C9         -7.7123    0.6609   17.7881 C.3         1 EZL      -0.0372
     17 H1         -1.3891    3.1467    9.7833 H           1 EZL       0.1640
     18 H2         -0.8614    4.3782   10.7850 H           1 EZL       0.1640
     19 H3         -5.3679   -0.4146   14.0734 H           1 EZL       0.0487
     20 H4         -5.7571    0.1407   18.6156 H           1 EZL       0.0610
     21 H5         -6.7805   -1.2236   18.2002 H           1 EZL       0.0610
     22 H6         -4.7753    1.9521   17.5277 H           1 EZL       0.0502
     23 H7         -3.8095    3.7001   16.1670 H           1 EZL       0.0565
     24 H8         -8.1586    0.7635   18.7778 H           1 EZL       0.0255
     25 H9         -8.4431    0.2039   17.1211 H           1 EZL       0.0255
     26 H10        -7.4535    1.6542   17.4164 H           1 EZL       0.0255
@<TRIPOS>BOND
     1     9     1  am
     2     2     3  ar
     3    11     2   1
     4     2    14  ar
     5     3     4  ar
     6     3    12   1
     7     4     5  ar
     8     5    13  ar
     9     5    15   1
    10    15     6   1
    11     6    16   1
    12     9     7   2
    13     9     8   2
    14    10     9   1
    15    10    11   2
    16    10    12   1
    17    13    14  ar
    18     1    17   1
    19     1    18   1
    20     4    19   1
    21     6    20   1
    22     6    21   1
    23    13    22   1
    24    14    23   1
    25    16    24   1
    26    16    25   1
    27    16    26   1
@<TRIPOS>SUBSTRUCTURE
     1  EZL      2

