@<TRIPOS>MOLECULE
3dd0_ligand_036
    26    27
SMALL
GAST_HUCK
****
This file was generated by PARSER (from files_GN.cpp)

@<TRIPOS>ATOM
      1 N1         -6.7991    1.9922   20.0772 N.am        1 EZL      -0.2548
      2 C2         -5.4502    2.7895   15.1951 C.ar        1 EZL       0.0296
      3 C3         -4.9242    1.5092   15.4314 C.ar        1 EZL       0.0510
      4 C4         -4.3452    0.7407   14.4111 C.ar        1 EZL      -0.0189
      5 C5         -4.3308    1.2662   13.1009 C.ar        1 EZL       0.0844
      6 C8         -4.7561   -0.3343   11.4127 C.3         1 EZL       0.0670
      7 O1         -5.3382    4.0924   19.6605 O.2         1 EZL      -0.1431
      8 O2         -7.6978    4.2097   18.8394 O.2         1 EZL      -0.1431
      9 S1         -6.4674    3.2123   18.9731 S.o2        1 EZL       0.1041
     10 C1         -5.9009    2.6891   17.4263 C.2         1 EZL       0.2500
     11 N2         -5.9693    3.4095   16.2859 N.2         1 EZL      -0.2771
     12 S2         -5.1493    1.1790   17.0986 S.3         1 EZL       0.0259
     13 C6         -4.8416    2.5618   12.8522 C.ar        1 EZL      -0.0391
     14 C7         -5.4048    3.3256   13.8957 C.ar        1 EZL      -0.0596
     15 O3         -3.8122    0.5479   12.0593 O.3         1 EZL      -0.3212
     16 C9         -4.7567   -1.7340   12.0571 C.3         1 EZL      -0.0372
     17 H1         -6.1281    1.7381   20.7349 H           1 EZL       0.1640
     18 H2         -7.6376    1.5092   20.0207 H           1 EZL       0.1640
     19 H3         -3.9566   -0.1807   14.6174 H           1 EZL       0.0487
     20 H4         -4.4356   -0.4407   10.3748 H           1 EZL       0.0610
     21 H5         -5.7771    0.0688   11.3927 H           1 EZL       0.0610
     22 H6         -4.8133    2.9473   11.9055 H           1 EZL       0.0502
     23 H7         -5.7831    4.2558   13.7057 H           1 EZL       0.0565
     24 H8         -5.4117   -2.4035   11.4968 H           1 EZL       0.0255
     25 H9         -5.1166   -1.6822   13.0846 H           1 EZL       0.0255
     26 H10        -3.7439   -2.1434   12.0551 H           1 EZL       0.0255
@<TRIPOS>BOND
     1     9     1  am
     2     2     3  ar
     3    11     2   1
     4     2    14  ar
     5     3     4  ar
     6     3    12   1
     7     4     5  ar
     8     5    13  ar
     9     5    15   1
    10    15     6   1
    11     6    16   1
    12     9     7   2
    13     9     8   2
    14    10     9   1
    15    10    11   2
    16    10    12   1
    17    13    14  ar
    18     1    17   1
    19     1    18   1
    20     4    19   1
    21     6    20   1
    22     6    21   1
    23    13    22   1
    24    14    23   1
    25    16    24   1
    26    16    25   1
    27    16    26   1
@<TRIPOS>SUBSTRUCTURE
     1  EZL      2

