@<TRIPOS>MOLECULE
3dd0_ligand_026
    26    27
SMALL
GAST_HUCK
****
This file was generated by PARSER (from files_GN.cpp)

@<TRIPOS>ATOM
      1 N1         -4.8854    3.4496   12.9931 N.am        1 EZL      -0.2548
      2 C2         -0.2699    3.0243   11.9683 C.ar        1 EZL       0.0296
      3 C3         -0.1267    4.0851   11.0603 C.ar        1 EZL       0.0510
      4 C4          1.1270    4.6580   10.7842 C.ar        1 EZL      -0.0189
      5 C5          2.2602    4.1716   11.4766 C.ar        1 EZL       0.0844
      6 C8          3.7347    5.9992   11.9007 C.3         1 EZL       0.0670
      7 O1         -4.9456    3.6152   10.3538 O.2         1 EZL      -0.1431
      8 O2         -4.4534    1.3741   11.4082 O.2         1 EZL      -0.1431
      9 S1         -4.1722    2.9316   11.5613 S.o2        1 EZL       0.1041
     10 C1         -2.4765    3.2579   11.4594 C.2         1 EZL       0.2500
     11 N2         -1.5400    2.5942   12.1673 N.2         1 EZL      -0.2771
     12 S2         -1.7044    4.4620   10.4999 S.3         1 EZL       0.0259
     13 C6          2.1219    3.0897   12.3755 C.ar        1 EZL      -0.0391
     14 C7          0.8626    2.5062   12.6157 C.ar        1 EZL      -0.0596
     15 O3          3.5113    4.7032   11.2984 O.3         1 EZL      -0.3212
     16 C9          3.5604    6.0258   13.4373 C.3         1 EZL      -0.0372
     17 H1         -5.3998    4.2721   13.0073 H           1 EZL       0.1640
     18 H2         -4.8711    2.8764   13.7751 H           1 EZL       0.1640
     19 H3          1.2093    5.4297   10.1208 H           1 EZL       0.0487
     20 H4          3.0795    6.7471   11.4446 H           1 EZL       0.0610
     21 H5          4.7632    6.2887   11.6715 H           1 EZL       0.0610
     22 H6          2.9404    2.7349   12.8754 H           1 EZL       0.0502
     23 H7          0.7738    1.7306   13.2746 H           1 EZL       0.0565
     24 H8          3.7999    7.0167   13.8282 H           1 EZL       0.0255
     25 H9          4.2198    5.2909   13.9028 H           1 EZL       0.0255
     26 H10         2.5278    5.7930   13.6992 H           1 EZL       0.0255
@<TRIPOS>BOND
     1     9     1  am
     2     2     3  ar
     3    11     2   1
     4     2    14  ar
     5     3     4  ar
     6     3    12   1
     7     4     5  ar
     8     5    13  ar
     9     5    15   1
    10    15     6   1
    11     6    16   1
    12     9     7   2
    13     9     8   2
    14    10     9   1
    15    10    11   2
    16    10    12   1
    17    13    14  ar
    18     1    17   1
    19     1    18   1
    20     4    19   1
    21     6    20   1
    22     6    21   1
    23    13    22   1
    24    14    23   1
    25    16    24   1
    26    16    25   1
    27    16    26   1
@<TRIPOS>SUBSTRUCTURE
     1  EZL      2

