@<TRIPOS>MOLECULE
3dd0_ligand_004
    26    27
SMALL
GAST_HUCK
****
This file was generated by PARSER (from files_GN.cpp)

@<TRIPOS>ATOM
      1 N1         -7.5443    1.7675   17.5622 N.am        1 EZL      -0.2548
      2 C2         -6.0157    4.5931   14.2854 C.ar        1 EZL       0.0296
      3 C3         -5.2131    3.9267   13.3465 C.ar        1 EZL       0.0510
      4 C4         -4.7836    4.5496   12.1643 C.ar        1 EZL      -0.0189
      5 C5         -5.1811    5.8850   11.9217 C.ar        1 EZL       0.0844
      6 C8         -5.7960    6.5455    9.7304 C.3         1 EZL       0.0670
      7 O1         -6.4031   -0.0106   15.9911 O.2         1 EZL      -0.1431
      8 O2         -4.9289    1.2852   17.5648 O.2         1 EZL      -0.1431
      9 S1         -6.1962    1.4343   16.6171 S.o2        1 EZL       0.1041
     10 C1         -5.8926    2.5961   15.3726 C.2         1 EZL       0.2500
     11 N2         -6.3706    3.8585   15.3697 N.2         1 EZL      -0.2771
     12 S2         -4.9627    2.3404   13.9469 S.3         1 EZL       0.0259
     13 C6         -5.9603    6.5748   12.8803 C.ar        1 EZL      -0.0391
     14 C7         -6.3915    5.9282   14.0565 C.ar        1 EZL      -0.0596
     15 O3         -4.7962    6.5235   10.7727 O.3         1 EZL      -0.3212
     16 C9         -6.9343    7.5595    9.9803 C.3         1 EZL      -0.0372
     17 H1         -8.3866    1.3211   17.3813 H           1 EZL       0.1640
     18 H2         -7.4790    2.4052   18.2894 H           1 EZL       0.1640
     19 H3         -4.2092    4.0408   11.4898 H           1 EZL       0.0487
     20 H4         -6.2228    5.5538    9.5556 H           1 EZL       0.0610
     21 H5         -5.2841    6.8436    8.8139 H           1 EZL       0.0610
     22 H6         -6.2345    7.5421   12.7077 H           1 EZL       0.0502
     23 H7         -6.9777    6.4209   14.7342 H           1 EZL       0.0565
     24 H8         -7.5998    7.5906    9.1156 H           1 EZL       0.0255
     25 H9         -6.5193    8.5565   10.1374 H           1 EZL       0.0255
     26 H10        -7.5172    7.2789   10.8580 H           1 EZL       0.0255
@<TRIPOS>BOND
     1     9     1  am
     2     2     3  ar
     3    11     2   1
     4     2    14  ar
     5     3     4  ar
     6     3    12   1
     7     4     5  ar
     8     5    13  ar
     9     5    15   1
    10    15     6   1
    11     6    16   1
    12     9     7   2
    13     9     8   2
    14    10     9   1
    15    10    11   2
    16    10    12   1
    17    13    14  ar
    18     1    17   1
    19     1    18   1
    20     4    19   1
    21     6    20   1
    22     6    21   1
    23    13    22   1
    24    14    23   1
    25    16    24   1
    26    16    25   1
    27    16    26   1
@<TRIPOS>SUBSTRUCTURE
     1  EZL      2

