@<TRIPOS>MOLECULE
3dxg_ligand_060
    32    33
SMALL
GAST_HUCK
****
This file was generated by PARSER (from files_GN.cpp)

@<TRIPOS>ATOM
      1 N1         41.4836    7.1020   11.4206 N.am        1 U5P      -0.1592
      2 C2         40.4697    6.8765   10.5562 C.2         1 U5P       0.3328
      3 N3         39.2167    6.7673   11.0012 N.am        1 U5P      -0.1865
      4 C4         38.9209    6.8800   12.2930 C.2         1 U5P       0.1822
      5 C5         39.9131    7.0969   13.2019 C.2         1 U5P       0.0062
      6 C6         41.1814    7.1867   12.7540 C.2         1 U5P       0.0591
      7 O2         40.6149    6.7682    9.3444 O.2         1 U5P      -0.3815
      8 O4         37.7576    6.7565   12.6445 O.2         1 U5P      -0.4124
      9 C1'        42.8726    7.2054   10.9847 C.3         1 U5P       0.2059
     10 C2'        43.6488    8.4479   11.5086 C.3         1 U5P       0.1387
     11 O2'        43.7988    9.4438   10.4946 O.3         1 U5P      -0.3836
     12 C3'        45.0100    7.8713   11.9614 C.3         1 U5P       0.1149
     13 C4'        44.9975    6.4367   11.3848 C.3         1 U5P       0.1182
     14 O3'        46.1448    8.6244   11.5283 O.3         1 U5P      -0.3864
     15 O4'        43.6162    6.0534   11.4159 O.3         1 U5P      -0.3363
     16 C5'        45.8713    5.4202   12.1577 C.3         1 U5P       0.1072
     17 O5'        45.9050    4.1857   11.4101 O.3         1 U5P      -0.2734
     18 P          46.7742    3.0371   12.0040 P.3         1 U5P       0.2008
     19 O1P        46.1639    2.4193   13.1533 O.co2       1 U5P      -0.5537
     20 O2P        48.1016    3.4830   12.3417 O.co2       1 U5P      -0.5537
     21 O3P        46.9172    2.0245   10.9902 O.co2       1 U5P      -0.5537
     22 H1         38.5022    6.5949   10.3676 H           1 U5P       0.2259
     23 H2         39.7086    7.1718   14.1724 H           1 U5P       0.0258
     24 H3         41.9027    7.3133   13.4287 H           1 U5P       0.1178
     25 H4         42.9421    7.2079    9.8900 H           1 U5P       0.0997
     26 H5         43.1449    8.9128   12.3603 H           1 U5P       0.0676
     27 H6         42.8946    9.7826   10.3329 H           1 U5P       0.2101
     28 H7         45.0321    7.8283   13.0548 H           1 U5P       0.0648
     29 H8         45.3411    6.4604   10.3428 H           1 U5P       0.0650
     30 H9         46.0680    8.6828   10.5510 H           1 U5P       0.2100
     31 H10        45.4403    5.2618   13.1526 H           1 U5P       0.0639
     32 H11        46.8762    5.8408   12.2663 H           1 U5P       0.0639
@<TRIPOS>BOND
     1     1     2  am
     2     1     6   1
     3     1     9   1
     4     2     3  am
     5     2     7   2
     6     3     4  am
     7     4     5   1
     8     4     8   2
     9     5     6   2
    10     9    10   1
    11     9    15   1
    12    10    11   1
    13    10    12   1
    14    12    13   1
    15    12    14   1
    16    13    15   1
    17    13    16   1
    18    16    17   1
    19    17    18   1
    20    18    19  ar
    21    18    20  ar
    22    18    21  ar
    23     3    22   1
    24     5    23   1
    25     6    24   1
    26     9    25   1
    27    10    26   1
    28    11    27   1
    29    12    28   1
    30    13    29   1
    31    14    30   1
    32    16    31   1
    33    16    32   1
@<TRIPOS>SUBSTRUCTURE
     1  U5P      2

