@<TRIPOS>MOLECULE
3dxg_ligand_057
    32    33
SMALL
GAST_HUCK
****
This file was generated by PARSER (from files_GN.cpp)

@<TRIPOS>ATOM
      1 N1         40.5491    2.7284   11.4357 N.am        1 U5P      -0.1592
      2 C2         41.7930    2.2087   11.5530 C.2         1 U5P       0.3328
      3 N3         42.8586    3.0092   11.6642 N.am        1 U5P      -0.1865
      4 C4         42.7426    4.3344   11.6581 C.2         1 U5P       0.1822
      5 C5         41.5191    4.9061   11.5122 C.2         1 U5P       0.0062
      6 C6         40.4479    4.1017   11.3814 C.2         1 U5P       0.0591
      7 O2         42.0196    1.0070   11.5396 O.2         1 U5P      -0.3815
      8 O4         43.7458    5.0267   11.7579 O.2         1 U5P      -0.4124
      9 C1'        39.3219    1.9406   11.2828 C.3         1 U5P       0.2059
     10 C2'        39.2212    0.4959   11.8414 C.3         1 U5P       0.1387
     11 O2'        39.7908   -0.5000   10.9943 O.3         1 U5P      -0.3836
     12 C3'        37.7087    0.2998   12.0453 C.3         1 U5P       0.1149
     13 C4'        37.2552    1.7156   12.4599 C.3         1 U5P       0.1182
     14 O3'        37.0540   -0.0975   10.8361 O.3         1 U5P      -0.3864
     15 O4'        38.2314    2.6188   11.9356 O.3         1 U5P      -0.3363
     16 C5'        37.1315    1.9356   13.9957 C.3         1 U5P       0.1072
     17 O5'        37.3725    3.2778   14.4649 O.3         1 U5P      -0.2734
     18 P          36.2893    4.3724   14.2630 P.3         1 U5P       0.2008
     19 O1P        36.3714    5.2315   15.4228 O.co2       1 U5P      -0.5537
     20 O2P        34.9439    3.8540   14.2197 O.co2       1 U5P      -0.5537
     21 O3P        36.5524    5.2085   13.1150 O.co2       1 U5P      -0.5537
     22 H1         43.7440    2.6207   11.7465 H           1 U5P       0.2259
     23 H2         41.4140    5.8913   11.4849 H           1 U5P       0.0258
     24 H3         39.5646    4.5427   11.2525 H           1 U5P       0.1178
     25 H4         39.0960    1.9100   10.2092 H           1 U5P       0.0997
     26 H5         39.7202    0.4407   12.8109 H           1 U5P       0.0676
     27 H6         39.2007   -0.5722   10.2160 H           1 U5P       0.2101
     28 H7         37.4977   -0.4534   12.8075 H           1 U5P       0.0648
     29 H8         36.2934    1.9568   11.9976 H           1 U5P       0.0650
     30 H9         37.1243   -1.0751   10.8037 H           1 U5P       0.2100
     31 H10        37.8849    1.3225   14.4948 H           1 U5P       0.0639
     32 H11        36.1590    1.5748   14.3395 H           1 U5P       0.0639
@<TRIPOS>BOND
     1     1     2  am
     2     1     6   1
     3     1     9   1
     4     2     3  am
     5     2     7   2
     6     3     4  am
     7     4     5   1
     8     4     8   2
     9     5     6   2
    10     9    10   1
    11     9    15   1
    12    10    11   1
    13    10    12   1
    14    12    13   1
    15    12    14   1
    16    13    15   1
    17    13    16   1
    18    16    17   1
    19    17    18   1
    20    18    19  ar
    21    18    20  ar
    22    18    21  ar
    23     3    22   1
    24     5    23   1
    25     6    24   1
    26     9    25   1
    27    10    26   1
    28    11    27   1
    29    12    28   1
    30    13    29   1
    31    14    30   1
    32    16    31   1
    33    16    32   1
@<TRIPOS>SUBSTRUCTURE
     1  U5P      2

