@<TRIPOS>MOLECULE
3dxg_ligand_013
    32    33
SMALL
GAST_HUCK
****
This file was generated by PARSER (from files_GN.cpp)

@<TRIPOS>ATOM
      1 N1         36.6840    2.5702   12.5267 N.am        1 U5P      -0.1592
      2 C2         36.8989    2.4164   11.2015 C.2         1 U5P       0.3328
      3 N3         36.4137    1.3500   10.5651 N.am        1 U5P      -0.1865
      4 C4         35.7327    0.4002   11.2003 C.2         1 U5P       0.1822
      5 C5         35.5104    0.5058   12.5384 C.2         1 U5P       0.0062
      6 C6         35.9929    1.5843   13.1867 C.2         1 U5P       0.0591
      7 O2         37.5288    3.2086   10.5146 O.2         1 U5P      -0.3815
      8 O4         35.2516   -0.5224   10.5580 O.2         1 U5P      -0.4124
      9 C1'        37.1977    3.6980   13.3084 C.3         1 U5P       0.2059
     10 C2'        38.5167    3.3327   14.0499 C.3         1 U5P       0.1387
     11 O2'        38.3769    3.5096   15.4625 O.3         1 U5P      -0.3836
     12 C3'        39.5362    4.3274   13.4773 C.3         1 U5P       0.1149
     13 C4'        38.6290    5.5157   13.1045 C.3         1 U5P       0.1182
     14 O3'        40.5655    4.6675   14.4041 O.3         1 U5P      -0.3864
     15 O4'        37.4493    4.9092   12.5636 O.3         1 U5P      -0.3363
     16 C5'        39.2535    6.4997   12.0794 C.3         1 U5P       0.1072
     17 O5'        40.6398    6.8241   12.3400 O.3         1 U5P      -0.2734
     18 P          41.0077    7.7262   13.5572 P.3         1 U5P       0.2008
     19 O1P        41.3674    9.0276   13.0556 O.co2       1 U5P      -0.5537
     20 O2P        42.2101    7.2038   14.1498 O.co2       1 U5P      -0.5537
     21 O3P        40.0274    7.9050   14.5940 O.co2       1 U5P      -0.5537
     22 H1         36.5272    1.2767    9.6038 H           1 U5P       0.2259
     23 H2         34.9908   -0.1892   13.0238 H           1 U5P       0.0258
     24 H3         35.8269    1.6515   14.1653 H           1 U5P       0.1178
     25 H4         36.4284    3.9921   14.0360 H           1 U5P       0.0997
     26 H5         38.8398    2.3041   13.8562 H           1 U5P       0.0676
     27 H6         37.5005    3.1365   15.6932 H           1 U5P       0.2101
     28 H7         39.9969    3.9102   12.5766 H           1 U5P       0.0648
     29 H8         38.3511    6.0757   14.0030 H           1 U5P       0.0650
     30 H9         41.0776    3.8454   14.5186 H           1 U5P       0.2100
     31 H10        38.6293    7.3937   11.9947 H           1 U5P       0.0639
     32 H11        39.2362    6.0139   11.0981 H           1 U5P       0.0639
@<TRIPOS>BOND
     1     1     2  am
     2     1     6   1
     3     1     9   1
     4     2     3  am
     5     2     7   2
     6     3     4  am
     7     4     5   1
     8     4     8   2
     9     5     6   2
    10     9    10   1
    11     9    15   1
    12    10    11   1
    13    10    12   1
    14    12    13   1
    15    12    14   1
    16    13    15   1
    17    13    16   1
    18    16    17   1
    19    17    18   1
    20    18    19  ar
    21    18    20  ar
    22    18    21  ar
    23     3    22   1
    24     5    23   1
    25     6    24   1
    26     9    25   1
    27    10    26   1
    28    11    27   1
    29    12    28   1
    30    13    29   1
    31    14    30   1
    32    16    31   1
    33    16    32   1
@<TRIPOS>SUBSTRUCTURE
     1  U5P      2

