@<TRIPOS>MOLECULE
3dxg_ligand_008
    32    33
SMALL
GAST_HUCK
****
This file was generated by PARSER (from files_GN.cpp)

@<TRIPOS>ATOM
      1 N1         39.4160    4.2202   11.8405 N.am        1 U5P      -0.1592
      2 C2         39.9542    5.3800   11.3959 C.2         1 U5P       0.3328
      3 N3         40.9546    5.3617   10.5135 N.am        1 U5P      -0.1865
      4 C4         41.4594    4.2156   10.0591 C.2         1 U5P       0.1822
      5 C5         40.9400    3.0295   10.4713 C.2         1 U5P       0.0062
      6 C6         39.9252    3.0465   11.3569 C.2         1 U5P       0.0591
      7 O2         39.6003    6.4829   11.7898 O.2         1 U5P      -0.3815
      8 O4         42.4139    4.2438    9.2943 O.2         1 U5P      -0.4124
      9 C1'        38.4120    4.1782   12.8947 C.3         1 U5P       0.2059
     10 C2'        39.0402    4.3780   14.2915 C.3         1 U5P       0.1387
     11 O2'        39.1750    3.1428   14.9943 O.3         1 U5P      -0.3836
     12 C3'        38.1064    5.3783   14.9961 C.3         1 U5P       0.1149
     13 C4'        36.9519    5.6376   13.9986 C.3         1 U5P       0.1182
     14 O3'        37.6262    4.9335   16.2674 O.3         1 U5P      -0.3864
     15 O4'        37.4024    5.1809   12.7104 O.3         1 U5P      -0.3363
     16 C5'        36.5516    7.1355   13.8760 C.3         1 U5P       0.1072
     17 O5'        36.6080    7.7770   15.1659 O.3         1 U5P      -0.2734
     18 P          36.7511    9.3266   15.2036 P.3         1 U5P       0.2008
     19 O1P        37.8510    9.8044   14.3986 O.co2       1 U5P      -0.5537
     20 O2P        37.0283    9.6998   16.5712 O.co2       1 U5P      -0.5537
     21 O3P        35.5267    9.9792   14.8067 O.co2       1 U5P      -0.5537
     22 H1         41.3410    6.1982   10.2168 H           1 U5P       0.2259
     23 H2         41.3163    2.1663   10.1526 H           1 U5P       0.0258
     24 H3         39.5742    2.1734   11.6777 H           1 U5P       0.1178
     25 H4         37.8704    3.2264   12.8908 H           1 U5P       0.0997
     26 H5         40.0385    4.8157   14.2220 H           1 U5P       0.0676
     27 H6         39.8011    2.6068   14.4596 H           1 U5P       0.2101
     28 H7         38.6680    6.3002   15.1715 H           1 U5P       0.0648
     29 H8         36.0724    5.0481   14.2803 H           1 U5P       0.0650
     30 H9         37.1247    4.1042   16.1051 H           1 U5P       0.2100
     31 H10        35.5369    7.2172   13.4655 H           1 U5P       0.0639
     32 H11        37.2372    7.6096   13.1663 H           1 U5P       0.0639
@<TRIPOS>BOND
     1     1     2  am
     2     1     6   1
     3     1     9   1
     4     2     3  am
     5     2     7   2
     6     3     4  am
     7     4     5   1
     8     4     8   2
     9     5     6   2
    10     9    10   1
    11     9    15   1
    12    10    11   1
    13    10    12   1
    14    12    13   1
    15    12    14   1
    16    13    15   1
    17    13    16   1
    18    16    17   1
    19    17    18   1
    20    18    19  ar
    21    18    20  ar
    22    18    21  ar
    23     3    22   1
    24     5    23   1
    25     6    24   1
    26     9    25   1
    27    10    26   1
    28    11    27   1
    29    12    28   1
    30    13    29   1
    31    14    30   1
    32    16    31   1
    33    16    32   1
@<TRIPOS>SUBSTRUCTURE
     1  U5P      2

