@<TRIPOS>MOLECULE
3dxg_ligand_054
    32    33
SMALL
GAST_HUCK
****
This file was generated by PARSER (from files_GN.cpp)

@<TRIPOS>ATOM
      1 N1         40.8057    5.8372   11.5094 N.am        1 U5P      -0.1592
      2 C2         41.3057    6.6752   10.5687 C.2         1 U5P       0.3328
      3 N3         42.1044    6.2051    9.6115 N.am        1 U5P      -0.1865
      4 C4         42.4287    4.9157    9.5426 C.2         1 U5P       0.1822
      5 C5         41.9096    4.0319   10.4377 C.2         1 U5P       0.0062
      6 C6         41.1040    4.5026   11.4066 C.2         1 U5P       0.0591
      7 O2         41.0657    7.8763   10.5406 O.2         1 U5P      -0.3815
      8 O4         43.2045    4.5416    8.6744 O.2         1 U5P      -0.4124
      9 C1'        39.9978    6.3059   12.6244 C.3         1 U5P       0.2059
     10 C2'        38.4961    5.9450   12.4959 C.3         1 U5P       0.1387
     11 O2'        37.7585    7.0035   11.8828 O.3         1 U5P      -0.3836
     12 C3'        38.0541    5.6603   13.9501 C.3         1 U5P       0.1149
     13 C4'        39.3325    5.9181   14.7837 C.3         1 U5P       0.1182
     14 O3'        36.9536    6.4582   14.3963 O.3         1 U5P      -0.3864
     15 O4'        40.4199    5.7331   13.8710 O.3         1 U5P      -0.3363
     16 C5'        39.4952    5.0160   16.0304 C.3         1 U5P       0.1072
     17 O5'        39.5119    3.6222   15.6445 O.3         1 U5P      -0.2734
     18 P          39.7924    2.5911   16.7748 P.3         1 U5P       0.2008
     19 O1P        39.3360    1.3050   16.3004 O.co2       1 U5P      -0.5537
     20 O2P        39.0924    2.8546   18.0092 O.co2       1 U5P      -0.5537
     21 O3P        41.2131    2.4792   17.0069 O.co2       1 U5P      -0.5537
     22 H1         42.4715    6.8214    8.9574 H           1 U5P       0.2259
     23 H2         42.1171    3.0610   10.3813 H           1 U5P       0.0258
     24 H3         40.7333    3.8524   12.0620 H           1 U5P       0.1178
     25 H4         40.0814    7.3938   12.7421 H           1 U5P       0.0997
     26 H5         38.3591    5.0386   11.8934 H           1 U5P       0.0676
     27 H6         38.0508    7.0221   10.9447 H           1 U5P       0.2101
     28 H7         37.7477    4.6101   14.0273 H           1 U5P       0.0648
     29 H8         39.3440    6.9597   15.1284 H           1 U5P       0.0650
     30 H9         37.2539    7.3867   14.3127 H           1 U5P       0.2100
     31 H10        38.6473    5.2070   16.7044 H           1 U5P       0.0639
     32 H11        40.4257    5.3038   16.5390 H           1 U5P       0.0639
@<TRIPOS>BOND
     1     1     2  am
     2     1     6   1
     3     1     9   1
     4     2     3  am
     5     2     7   2
     6     3     4  am
     7     4     5   1
     8     4     8   2
     9     5     6   2
    10     9    10   1
    11     9    15   1
    12    10    11   1
    13    10    12   1
    14    12    13   1
    15    12    14   1
    16    13    15   1
    17    13    16   1
    18    16    17   1
    19    17    18   1
    20    18    19  ar
    21    18    20  ar
    22    18    21  ar
    23     3    22   1
    24     5    23   1
    25     6    24   1
    26     9    25   1
    27    10    26   1
    28    11    27   1
    29    12    28   1
    30    13    29   1
    31    14    30   1
    32    16    31   1
    33    16    32   1
@<TRIPOS>SUBSTRUCTURE
     1  U5P      2

