@<TRIPOS>MOLECULE
3dxg_ligand_070
    32    33
SMALL
GAST_HUCK
****
This file was generated by PARSER (from files_GN.cpp)

@<TRIPOS>ATOM
      1 N1         37.1674   -4.3228   12.2128 N.am        1 U5P      -0.1592
      2 C2         38.4917   -4.5380   12.4192 C.2         1 U5P       0.3328
      3 N3         38.8933   -5.4819   13.2691 N.am        1 U5P      -0.1865
      4 C4         38.0280   -6.2397   13.9358 C.2         1 U5P       0.1822
      5 C5         36.6942   -6.0911   13.7279 C.2         1 U5P       0.0062
      6 C6         36.2819   -5.1486   12.8576 C.2         1 U5P       0.0591
      7 O2         39.3907   -3.9141   11.8706 O.2         1 U5P      -0.3815
      8 O4         38.4559   -7.0748   14.7164 O.2         1 U5P      -0.4124
      9 C1'        36.6324   -3.2803   11.3383 C.3         1 U5P       0.2059
     10 C2'        35.5225   -2.4305   12.0232 C.3         1 U5P       0.1387
     11 O2'        34.4905   -2.0954   11.0917 O.3         1 U5P      -0.3836
     12 C3'        36.3007   -1.1828   12.4621 C.3         1 U5P       0.1149
     13 C4'        37.2715   -1.0005   11.2783 C.3         1 U5P       0.1182
     14 O3'        35.4957   -0.0323   12.7130 O.3         1 U5P      -0.3864
     15 O4'        37.5993   -2.3364   10.8400 O.3         1 U5P      -0.3363
     16 C5'        38.5531   -0.1858   11.6048 C.3         1 U5P       0.1072
     17 O5'        38.3163    1.0019   12.3950 O.3         1 U5P      -0.2734
     18 P          37.4991    2.1634   11.7621 P.3         1 U5P       0.2008
     19 O1P        38.2349    2.9122   10.7662 O.co2       1 U5P      -0.5537
     20 O2P        37.1663    3.0891   12.8205 O.co2       1 U5P      -0.5537
     21 O3P        36.2551    1.7105   11.1925 O.co2       1 U5P      -0.5537
     22 H1         39.8449   -5.6115   13.4117 H           1 U5P       0.2259
     23 H2         36.0336   -6.6656   14.2011 H           1 U5P       0.0258
     24 H3         35.3071   -5.0630   12.6962 H           1 U5P       0.1178
     25 H4         36.2181   -3.7745   10.4582 H           1 U5P       0.0997
     26 H5         35.0611   -2.9134   12.8866 H           1 U5P       0.0676
     27 H6         34.0094   -2.9351   10.9291 H           1 U5P       0.2101
     28 H7         36.8632   -1.4135   13.3774 H           1 U5P       0.0648
     29 H8         36.7422   -0.5114   10.4539 H           1 U5P       0.0650
     30 H9         34.5658   -0.3156   12.5865 H           1 U5P       0.2100
     31 H10        39.0942    0.0512   10.6758 H           1 U5P       0.0639
     32 H11        39.2160   -0.8132   12.1990 H           1 U5P       0.0639
@<TRIPOS>BOND
     1     1     2  am
     2     1     6   1
     3     1     9   1
     4     2     3  am
     5     2     7   2
     6     3     4  am
     7     4     5   1
     8     4     8   2
     9     5     6   2
    10     9    10   1
    11     9    15   1
    12    10    11   1
    13    10    12   1
    14    12    13   1
    15    12    14   1
    16    13    15   1
    17    13    16   1
    18    16    17   1
    19    17    18   1
    20    18    19  ar
    21    18    20  ar
    22    18    21  ar
    23     3    22   1
    24     5    23   1
    25     6    24   1
    26     9    25   1
    27    10    26   1
    28    11    27   1
    29    12    28   1
    30    13    29   1
    31    14    30   1
    32    16    31   1
    33    16    32   1
@<TRIPOS>SUBSTRUCTURE
     1  U5P      2

