@<TRIPOS>MOLECULE
3dxg_ligand_066
    32    33
SMALL
GAST_HUCK
****
This file was generated by PARSER (from files_GN.cpp)

@<TRIPOS>ATOM
      1 N1         41.4514    2.7012   13.8668 N.am        1 U5P      -0.1592
      2 C2         41.5492    2.7380   12.5181 C.2         1 U5P       0.3328
      3 N3         42.4637    2.0020   11.8913 N.am        1 U5P      -0.1865
      4 C4         43.3162    1.2258   12.5584 C.2         1 U5P       0.1822
      5 C5         43.2926    1.2027   13.9217 C.2         1 U5P       0.0062
      6 C6         42.3672    1.9497   14.5530 C.2         1 U5P       0.0591
      7 O2         40.8518    3.4349   11.7910 O.2         1 U5P      -0.3815
      8 O4         44.1273    0.5629   11.9187 O.2         1 U5P      -0.4124
      9 C1'        40.4615    3.4459   14.6295 C.3         1 U5P       0.2059
     10 C2'        41.0926    4.6498   15.3769 C.3         1 U5P       0.1387
     11 O2'        40.6707    4.7034   16.7402 O.3         1 U5P      -0.3836
     12 C3'        40.5550    5.8474   14.5845 C.3         1 U5P       0.1149
     13 C4'        39.1811    5.3393   14.1162 C.3         1 U5P       0.1182
     14 O3'        40.4416    7.0540   15.3509 O.3         1 U5P      -0.3864
     15 O4'        39.3765    3.9514   13.8281 O.3         1 U5P      -0.3363
     16 C5'        38.5988    6.1248   12.8999 C.3         1 U5P       0.1072
     17 O5'        37.2122    6.5230   13.0137 O.3         1 U5P      -0.2734
     18 P          36.8590    7.6839   13.9886 P.3         1 U5P       0.2008
     19 O1P        35.5810    8.2064   13.5692 O.co2       1 U5P      -0.5537
     20 O2P        37.7997    8.7822   13.9416 O.co2       1 U5P      -0.5537
     21 O3P        36.6951    7.2308   15.3533 O.co2       1 U5P      -0.5537
     22 H1         42.5100    2.0259   10.9179 H           1 U5P       0.2259
     23 H2         43.9487    0.6610   14.4313 H           1 U5P       0.0258
     24 H3         42.3761    1.9500   15.5481 H           1 U5P       0.1178
     25 H4         39.9871    2.7756   15.3483 H           1 U5P       0.0997
     26 H5         42.1851    4.6414   15.3486 H           1 U5P       0.0676
     27 H6         41.0976    3.9303   17.1664 H           1 U5P       0.2101
     28 H7         41.2036    6.0270   13.7179 H           1 U5P       0.0648
     29 H8         38.4755    5.3810   14.9570 H           1 U5P       0.0650
     30 H9         41.3630    7.2970   15.5751 H           1 U5P       0.2100
     31 H10        38.6425    5.4781   12.0167 H           1 U5P       0.0639
     32 H11        39.2131    6.9928   12.6472 H           1 U5P       0.0639
@<TRIPOS>BOND
     1     1     2  am
     2     1     6   1
     3     1     9   1
     4     2     3  am
     5     2     7   2
     6     3     4  am
     7     4     5   1
     8     4     8   2
     9     5     6   2
    10     9    10   1
    11     9    15   1
    12    10    11   1
    13    10    12   1
    14    12    13   1
    15    12    14   1
    16    13    15   1
    17    13    16   1
    18    16    17   1
    19    17    18   1
    20    18    19  ar
    21    18    20  ar
    22    18    21  ar
    23     3    22   1
    24     5    23   1
    25     6    24   1
    26     9    25   1
    27    10    26   1
    28    11    27   1
    29    12    28   1
    30    13    29   1
    31    14    30   1
    32    16    31   1
    33    16    32   1
@<TRIPOS>SUBSTRUCTURE
     1  U5P      2

