@<TRIPOS>MOLECULE
3dxg_ligand_046
    32    33
SMALL
GAST_HUCK
****
This file was generated by PARSER (from files_GN.cpp)

@<TRIPOS>ATOM
      1 N1         33.7270   -9.0408   13.7335 N.am        1 U5P      -0.1592
      2 C2         34.0084   -9.1510   15.0591 C.2         1 U5P       0.3328
      3 N3         33.7256  -10.2586   15.7322 N.am        1 U5P      -0.1865
      4 C4         33.0912  -11.2736   15.1556 C.2         1 U5P       0.1822
      5 C5         32.6983  -11.1814   13.8604 C.2         1 U5P       0.0062
      6 C6         33.0190  -10.0711   13.1636 C.2         1 U5P       0.0591
      7 O2         34.5482   -8.2957   15.7440 O.2         1 U5P      -0.3815
      8 O4         32.8541  -12.2681   15.8263 O.2         1 U5P      -0.4124
      9 C1'        34.0804   -7.8443   12.9627 C.3         1 U5P       0.2059
     10 C2'        35.4780   -7.2433   13.2969 C.3         1 U5P       0.1387
     11 O2'        35.3280   -5.9463   13.8847 O.3         1 U5P      -0.3836
     12 C3'        36.2435   -7.2261   11.9789 C.3         1 U5P       0.1149
     13 C4'        35.1164   -7.2119   10.9325 C.3         1 U5P       0.1182
     14 O3'        37.1407   -6.1266   11.8654 O.3         1 U5P      -0.3864
     15 O4'        34.0772   -8.0134   11.5218 O.3         1 U5P      -0.3363
     16 C5'        35.5596   -7.7672    9.5471 C.3         1 U5P       0.1072
     17 O5'        35.0580   -6.9370    8.4729 O.3         1 U5P      -0.2734
     18 P          35.9591   -6.7753    7.2000 P.3         1 U5P       0.2008
     19 O1P        36.0282   -5.3584    6.9695 O.co2       1 U5P      -0.5537
     20 O2P        35.4161   -7.3788    6.0100 O.co2       1 U5P      -0.5537
     21 O3P        37.3353   -7.1745    7.3362 O.co2       1 U5P      -0.5537
     22 H1         33.9853  -10.3215   16.6637 H           1 U5P       0.2259
     23 H2         32.1600  -11.9087   13.4435 H           1 U5P       0.0258
     24 H3         32.6993  -10.0100   12.2242 H           1 U5P       0.1178
     25 H4         33.3079   -7.0982   13.1772 H           1 U5P       0.0997
     26 H5         36.0629   -7.8588   13.9800 H           1 U5P       0.0676
     27 H6         36.2094   -5.7282   14.2522 H           1 U5P       0.2101
     28 H7         36.8166   -8.1567   11.8998 H           1 U5P       0.0648
     29 H8         34.7676   -6.1828   10.8114 H           1 U5P       0.0650
     30 H9         36.5824   -5.3230   11.9066 H           1 U5P       0.2100
     31 H10        35.1918   -8.7846    9.4057 H           1 U5P       0.0639
     32 H11        36.6489   -7.8300    9.5687 H           1 U5P       0.0639
@<TRIPOS>BOND
     1     1     2  am
     2     1     6   1
     3     1     9   1
     4     2     3  am
     5     2     7   2
     6     3     4  am
     7     4     5   1
     8     4     8   2
     9     5     6   2
    10     9    10   1
    11     9    15   1
    12    10    11   1
    13    10    12   1
    14    12    13   1
    15    12    14   1
    16    13    15   1
    17    13    16   1
    18    16    17   1
    19    17    18   1
    20    18    19  ar
    21    18    20  ar
    22    18    21  ar
    23     3    22   1
    24     5    23   1
    25     6    24   1
    26     9    25   1
    27    10    26   1
    28    11    27   1
    29    12    28   1
    30    13    29   1
    31    14    30   1
    32    16    31   1
    33    16    32   1
@<TRIPOS>SUBSTRUCTURE
     1  U5P      2

