@<TRIPOS>MOLECULE
3dxg_ligand_052
    32    33
SMALL
GAST_HUCK
****
This file was generated by PARSER (from files_GN.cpp)

@<TRIPOS>ATOM
      1 N1         38.0218   -0.7692   11.8368 N.am        1 U5P      -0.1592
      2 C2         37.5492   -0.1014   10.7604 C.2         1 U5P       0.3328
      3 N3         36.2550   -0.1621   10.4488 N.am        1 U5P      -0.1865
      4 C4         35.3989   -0.8845   11.1680 C.2         1 U5P       0.1822
      5 C5         35.8332   -1.5677   12.2627 C.2         1 U5P       0.0062
      6 C6         37.1406   -1.5092   12.5771 C.2         1 U5P       0.0591
      7 O2         38.2495    0.5830   10.0259 O.2         1 U5P      -0.3815
      8 O4         34.2224   -0.9145   10.8391 O.2         1 U5P      -0.4124
      9 C1'        39.4270   -0.7415   12.2143 C.3         1 U5P       0.2059
     10 C2'        40.3172   -1.6948   11.3709 C.3         1 U5P       0.1387
     11 O2'        40.8743   -2.7407   12.1713 O.3         1 U5P      -0.3836
     12 C3'        41.4015   -0.7667   10.7951 C.3         1 U5P       0.1149
     13 C4'        41.3540    0.4554   11.7413 C.3         1 U5P       0.1182
     14 O3'        42.7016   -1.3547   10.7389 O.3         1 U5P      -0.3864
     15 O4'        39.9695    0.5828   12.0811 O.3         1 U5P      -0.3363
     16 C5'        41.9310    1.7688   11.1344 C.3         1 U5P       0.1072
     17 O5'        41.0980    2.9173   11.4246 O.3         1 U5P      -0.2734
     18 P          41.6391    4.3036   10.9445 P.3         1 U5P       0.2008
     19 O1P        40.5648    5.0583   10.3527 O.co2       1 U5P      -0.5537
     20 O2P        42.7096    4.2181    9.9839 O.co2       1 U5P      -0.5537
     21 O3P        42.1092    5.0439   12.0882 O.co2       1 U5P      -0.5537
     22 H1         35.9328    0.3332    9.6779 H           1 U5P       0.2259
     23 H2         35.2049   -2.1124   12.8096 H           1 U5P       0.0258
     24 H3         37.4533   -2.0284   13.3662 H           1 U5P       0.1178
     25 H4         39.5478   -0.9932   13.2752 H           1 U5P       0.0997
     26 H5         39.7559   -2.1659   10.5591 H           1 U5P       0.0676
     27 H6         41.4239   -2.2901   12.8478 H           1 U5P       0.2101
     28 H7         41.1098   -0.4745    9.7809 H           1 U5P       0.0648
     29 H8         41.9009    0.2229   12.6645 H           1 U5P       0.0650
     30 H9         42.6052   -2.1395   10.1578 H           1 U5P       0.2100
     31 H10        42.0162    1.6603   10.0464 H           1 U5P       0.0639
     32 H11        42.9387    1.9114   11.5427 H           1 U5P       0.0639
@<TRIPOS>BOND
     1     1     2  am
     2     1     6   1
     3     1     9   1
     4     2     3  am
     5     2     7   2
     6     3     4  am
     7     4     5   1
     8     4     8   2
     9     5     6   2
    10     9    10   1
    11     9    15   1
    12    10    11   1
    13    10    12   1
    14    12    13   1
    15    12    14   1
    16    13    15   1
    17    13    16   1
    18    16    17   1
    19    17    18   1
    20    18    19  ar
    21    18    20  ar
    22    18    21  ar
    23     3    22   1
    24     5    23   1
    25     6    24   1
    26     9    25   1
    27    10    26   1
    28    11    27   1
    29    12    28   1
    30    13    29   1
    31    14    30   1
    32    16    31   1
    33    16    32   1
@<TRIPOS>SUBSTRUCTURE
     1  U5P      2

