@<TRIPOS>MOLECULE
3dxg_ligand_020
    32    33
SMALL
GAST_HUCK
****
This file was generated by PARSER (from files_GN.cpp)

@<TRIPOS>ATOM
      1 N1         33.8173   -9.3716   14.9275 N.am        1 U5P      -0.1592
      2 C2         34.2010   -9.7286   16.1739 C.2         1 U5P       0.3328
      3 N3         33.7887  -10.8842   16.6944 N.am        1 U5P      -0.1865
      4 C4         33.0169  -11.7204   16.0084 C.2         1 U5P       0.1822
      5 C5         32.6330  -11.4152   14.7397 C.2         1 U5P       0.0062
      6 C6         33.0407  -10.2441   14.2139 C.2         1 U5P       0.0591
      7 O2         34.9253   -9.0360   16.8774 O.2         1 U5P      -0.3815
      8 O4         32.6679  -12.7675   16.5363 O.2         1 U5P      -0.4124
      9 C1'        34.2674   -8.1255   14.3256 C.3         1 U5P       0.2059
     10 C2'        35.6618   -8.2614   13.6853 C.3         1 U5P       0.1387
     11 O2'        36.7077   -8.1652   14.6493 O.3         1 U5P      -0.3836
     12 C3'        35.6558   -7.1384   12.6321 C.3         1 U5P       0.1149
     13 C4'        34.1656   -7.0873   12.2029 C.3         1 U5P       0.1182
     14 O3'        36.0617   -5.8991   13.2226 O.3         1 U5P      -0.3864
     15 O4'        33.3953   -7.6148   13.3037 O.3         1 U5P      -0.3363
     16 C5'        33.8054   -7.8958   10.9263 C.3         1 U5P       0.1072
     17 O5'        34.3363   -9.2332   11.0434 O.3         1 U5P      -0.2734
     18 P          33.8653  -10.2908   10.0099 P.3         1 U5P       0.2008
     19 O1P        34.1113   -9.9015    8.6412 O.co2       1 U5P      -0.5537
     20 O2P        32.4677  -10.5863   10.2061 O.co2       1 U5P      -0.5537
     21 O3P        34.5761  -11.5150   10.2710 O.co2       1 U5P      -0.5537
     22 H1         34.0662  -11.1186   17.5938 H           1 U5P       0.2259
     23 H2         32.0570  -12.0342   14.2164 H           1 U5P       0.0258
     24 H3         32.7503  -10.0317   13.2859 H           1 U5P       0.1178
     25 H4         34.2896   -7.3336   15.0849 H           1 U5P       0.0997
     26 H5         35.7469   -9.2352   13.1914 H           1 U5P       0.0676
     27 H6         37.5312   -8.3453   14.1467 H           1 U5P       0.2101
     28 H7         36.3364   -7.3718   11.8060 H           1 U5P       0.0648
     29 H8         33.8544   -6.0493   12.0362 H           1 U5P       0.0650
     30 H9         36.0590   -5.2483   12.4875 H           1 U5P       0.2100
     31 H10        34.2304   -7.4027   10.0474 H           1 U5P       0.0639
     32 H11        32.7113   -7.8828   10.8277 H           1 U5P       0.0639
@<TRIPOS>BOND
     1     1     2  am
     2     1     6   1
     3     1     9   1
     4     2     3  am
     5     2     7   2
     6     3     4  am
     7     4     5   1
     8     4     8   2
     9     5     6   2
    10     9    10   1
    11     9    15   1
    12    10    11   1
    13    10    12   1
    14    12    13   1
    15    12    14   1
    16    13    15   1
    17    13    16   1
    18    16    17   1
    19    17    18   1
    20    18    19  ar
    21    18    20  ar
    22    18    21  ar
    23     3    22   1
    24     5    23   1
    25     6    24   1
    26     9    25   1
    27    10    26   1
    28    11    27   1
    29    12    28   1
    30    13    29   1
    31    14    30   1
    32    16    31   1
    33    16    32   1
@<TRIPOS>SUBSTRUCTURE
     1  U5P      2

