@<TRIPOS>MOLECULE
3dxg_ligand_072
    32    33
SMALL
GAST_HUCK
****
This file was generated by PARSER (from files_GN.cpp)

@<TRIPOS>ATOM
      1 N1         39.4700    8.0874   14.9393 N.am        1 U5P      -0.1592
      2 C2         40.2150    7.6421   13.9015 C.2         1 U5P       0.3328
      3 N3         41.1505    8.4249   13.3639 N.am        1 U5P      -0.1865
      4 C4         41.3610    9.6629   13.7991 C.2         1 U5P       0.1822
      5 C5         40.6108   10.1662   14.8159 C.2         1 U5P       0.0062
      6 C6         39.6729    9.3734   15.3696 C.2         1 U5P       0.0591
      7 O2         40.0970    6.5333   13.3999 O.2         1 U5P      -0.3815
      8 O4         42.2314   10.3350   13.2659 O.2         1 U5P      -0.4124
      9 C1'        38.4779    7.2641   15.6218 C.3         1 U5P       0.2059
     10 C2'        37.0556    7.3783   15.0065 C.3         1 U5P       0.1387
     11 O2'        36.1104    7.6965   16.0324 O.3         1 U5P      -0.3836
     12 C3'        36.8119    5.9824   14.4121 C.3         1 U5P       0.1149
     13 C4'        37.6741    5.0771   15.3167 C.3         1 U5P       0.1182
     14 O3'        35.4355    5.6020   14.3372 O.3         1 U5P      -0.3864
     15 O4'        38.8283    5.8681   15.6402 O.3         1 U5P      -0.3363
     16 C5'        38.1146    3.7364   14.6609 C.3         1 U5P       0.1072
     17 O5'        39.4181    3.2940   15.0907 O.3         1 U5P      -0.2734
     18 P          39.5444    2.5197   16.4326 P.3         1 U5P       0.2008
     19 O1P        38.8402    3.1235   17.5347 O.co2       1 U5P      -0.5537
     20 O2P        40.9440    2.5037   16.7735 O.co2       1 U5P      -0.5537
     21 O3P        39.1329    1.1488   16.2650 O.co2       1 U5P      -0.5537
     22 H1         41.6900    8.0847   12.6323 H           1 U5P       0.2259
     23 H2         40.7469   11.0953   15.1452 H           1 U5P       0.0258
     24 H3         39.1223    9.7504   16.1095 H           1 U5P       0.1178
     25 H4         38.4397    7.5526   16.6799 H           1 U5P       0.0997
     26 H5         36.9900    8.1419   14.2248 H           1 U5P       0.0676
     27 H6         35.2237    7.6388   15.6171 H           1 U5P       0.2101
     28 H7         37.2070    5.9669   13.3922 H           1 U5P       0.0648
     29 H8         37.1276    4.8666   16.2436 H           1 U5P       0.0650
     30 H9         35.0247    5.8278   15.1985 H           1 U5P       0.2100
     31 H10        38.2182    3.8832   13.5851 H           1 U5P       0.0639
     32 H11        37.3415    2.9754   14.8004 H           1 U5P       0.0639
@<TRIPOS>BOND
     1     1     2  am
     2     1     6   1
     3     1     9   1
     4     2     3  am
     5     2     7   2
     6     3     4  am
     7     4     5   1
     8     4     8   2
     9     5     6   2
    10     9    10   1
    11     9    15   1
    12    10    11   1
    13    10    12   1
    14    12    13   1
    15    12    14   1
    16    13    15   1
    17    13    16   1
    18    16    17   1
    19    17    18   1
    20    18    19  ar
    21    18    20  ar
    22    18    21  ar
    23     3    22   1
    24     5    23   1
    25     6    24   1
    26     9    25   1
    27    10    26   1
    28    11    27   1
    29    12    28   1
    30    13    29   1
    31    14    30   1
    32    16    31   1
    33    16    32   1
@<TRIPOS>SUBSTRUCTURE
     1  U5P      2

