@<TRIPOS>MOLECULE
3dxg_ligand_043
    32    33
SMALL
GAST_HUCK
****
This file was generated by PARSER (from files_GN.cpp)

@<TRIPOS>ATOM
      1 N1         41.2982    5.6333   10.7331 N.am        1 U5P      -0.1592
      2 C2         40.3904    6.6272   10.8388 C.2         1 U5P       0.3328
      3 N3         39.1754    6.3855   11.3364 N.am        1 U5P      -0.1865
      4 C4         38.8218    5.1685   11.7597 C.2         1 U5P       0.1822
      5 C5         39.7108    4.1440   11.6827 C.2         1 U5P       0.0062
      6 C6         40.9304    4.3810   11.1569 C.2         1 U5P       0.0591
      7 O2         40.6038    7.7847   10.5096 O.2         1 U5P      -0.3815
      8 O4         37.7056    5.0071   12.2227 O.2         1 U5P      -0.4124
      9 C1'        42.6449    5.8380   10.2120 C.3         1 U5P       0.2059
     10 C2'        42.7567    5.6743    8.6718 C.3         1 U5P       0.1387
     11 O2'        43.0907    4.3333    8.3126 O.3         1 U5P      -0.3836
     12 C3'        43.8568    6.6820    8.2606 C.3         1 U5P       0.1149
     13 C4'        44.3437    7.2531    9.6063 C.3         1 U5P       0.1182
     14 O3'        44.9360    6.1319    7.4952 O.3         1 U5P      -0.3864
     15 O4'        43.2121    7.1358   10.4803 O.3         1 U5P      -0.3363
     16 C5'        44.9480    8.6873    9.5476 C.3         1 U5P       0.1072
     17 O5'        44.1788    9.7594    8.9586 O.3         1 U5P      -0.2734
     18 P          42.8151   10.1733    9.6027 P.3         1 U5P       0.2008
     19 O1P        42.7048   11.5996    9.4781 O.co2       1 U5P      -0.5537
     20 O2P        42.7030    9.8593   11.0110 O.co2       1 U5P      -0.5537
     21 O3P        41.7322    9.6306    8.8340 O.co2       1 U5P      -0.5537
     22 H1         38.5345    7.1099   11.4033 H           1 U5P       0.2259
     23 H2         39.4640    3.2292   11.9972 H           1 U5P       0.0258
     24 H3         41.5633    3.6186   11.0921 H           1 U5P       0.1178
     25 H4         43.3237    5.1169   10.6907 H           1 U5P       0.0997
     26 H5         41.8173    5.9468    8.1869 H           1 U5P       0.0676
     27 H6         42.3163    3.9915    7.8205 H           1 U5P       0.2101
     28 H7         43.4025    7.4691    7.6503 H           1 U5P       0.0648
     29 H8         45.1322    6.6069   10.0052 H           1 U5P       0.0650
     30 H9         45.4555    5.5860    8.1249 H           1 U5P       0.2100
     31 H10        45.8393    8.6212    8.9190 H           1 U5P       0.0639
     32 H11        45.2969    8.9670   10.5437 H           1 U5P       0.0639
@<TRIPOS>BOND
     1     1     2  am
     2     1     6   1
     3     1     9   1
     4     2     3  am
     5     2     7   2
     6     3     4  am
     7     4     5   1
     8     4     8   2
     9     5     6   2
    10     9    10   1
    11     9    15   1
    12    10    11   1
    13    10    12   1
    14    12    13   1
    15    12    14   1
    16    13    15   1
    17    13    16   1
    18    16    17   1
    19    17    18   1
    20    18    19  ar
    21    18    20  ar
    22    18    21  ar
    23     3    22   1
    24     5    23   1
    25     6    24   1
    26     9    25   1
    27    10    26   1
    28    11    27   1
    29    12    28   1
    30    13    29   1
    31    14    30   1
    32    16    31   1
    33    16    32   1
@<TRIPOS>SUBSTRUCTURE
     1  U5P      2

