@<TRIPOS>MOLECULE
3dxg_ligand_012
    32    33
SMALL
GAST_HUCK
****
This file was generated by PARSER (from files_GN.cpp)

@<TRIPOS>ATOM
      1 N1         36.5951   -0.6137   12.0119 N.am        1 U5P      -0.1592
      2 C2         36.1374   -0.0710   10.8623 C.2         1 U5P       0.3328
      3 N3         36.7112    1.0210   10.3598 N.am        1 U5P      -0.1865
      4 C4         37.7378    1.6214   10.9600 C.2         1 U5P       0.1822
      5 C5         38.2279    1.1133   12.1188 C.2         1 U5P       0.0062
      6 C6         37.6489    0.0113   12.6341 C.2         1 U5P       0.0591
      7 O2         35.1798   -0.5124   10.2390 O.2         1 U5P      -0.3815
      8 O4         38.2086    2.6314   10.4607 O.2         1 U5P      -0.4124
      9 C1'        35.8947   -1.7350   12.6427 C.3         1 U5P       0.2059
     10 C2'        35.5670   -2.9443   11.7252 C.3         1 U5P       0.1387
     11 O2'        34.3394   -3.5415   12.1544 O.3         1 U5P      -0.3836
     12 C3'        36.7641   -3.8759   11.9446 C.3         1 U5P       0.1149
     13 C4'        37.2035   -3.5531   13.3925 C.3         1 U5P       0.1182
     14 O3'        36.4538   -5.2540   11.7617 O.3         1 U5P      -0.3864
     15 O4'        36.5631   -2.3224   13.7740 O.3         1 U5P      -0.3363
     16 C5'        38.7419   -3.4506   13.5965 C.3         1 U5P       0.1072
     17 O5'        39.0533   -2.8513   14.8681 O.3         1 U5P      -0.2734
     18 P          39.5215   -3.7785   16.0250 P.3         1 U5P       0.2008
     19 O1P        38.7702   -5.0020   16.1816 O.co2       1 U5P      -0.5537
     20 O2P        39.3483   -3.0150   17.2426 O.co2       1 U5P      -0.5537
     21 O3P        40.9403   -4.0598   15.9179 O.co2       1 U5P      -0.5537
     22 H1         36.3647    1.3995    9.5316 H           1 U5P       0.2259
     23 H2         38.9777    1.5553   12.5953 H           1 U5P       0.0258
     24 H3         37.9924   -0.3159   13.5025 H           1 U5P       0.1178
     25 H4         34.9556   -1.3206   13.0359 H           1 U5P       0.0997
     26 H5         35.4769   -2.6678   10.6739 H           1 U5P       0.0676
     27 H6         33.7916   -3.6662   11.3370 H           1 U5P       0.2101
     28 H7         37.5467   -3.6089   11.2361 H           1 U5P       0.0648
     29 H8         36.8249   -4.3216   14.0717 H           1 U5P       0.0650
     30 H9         35.7060   -5.4495   12.3687 H           1 U5P       0.2100
     31 H10        39.1545   -2.7759   12.8358 H           1 U5P       0.0639
     32 H11        39.2186   -4.4235   13.4349 H           1 U5P       0.0639
@<TRIPOS>BOND
     1     1     2  am
     2     1     6   1
     3     1     9   1
     4     2     3  am
     5     2     7   2
     6     3     4  am
     7     4     5   1
     8     4     8   2
     9     5     6   2
    10     9    10   1
    11     9    15   1
    12    10    11   1
    13    10    12   1
    14    12    13   1
    15    12    14   1
    16    13    15   1
    17    13    16   1
    18    16    17   1
    19    17    18   1
    20    18    19  ar
    21    18    20  ar
    22    18    21  ar
    23     3    22   1
    24     5    23   1
    25     6    24   1
    26     9    25   1
    27    10    26   1
    28    11    27   1
    29    12    28   1
    30    13    29   1
    31    14    30   1
    32    16    31   1
    33    16    32   1
@<TRIPOS>SUBSTRUCTURE
     1  U5P      2

