@<TRIPOS>MOLECULE
3dxg_ligand_053
    32    33
SMALL
GAST_HUCK
****
This file was generated by PARSER (from files_GN.cpp)

@<TRIPOS>ATOM
      1 N1         40.6056    4.3005   10.7812 N.am        1 U5P      -0.1592
      2 C2         41.6215    4.8319   10.0561 C.2         1 U5P       0.3328
      3 N3         41.7480    6.1579    9.9491 N.am        1 U5P      -0.1865
      4 C4         40.8671    6.9941   10.4842 C.2         1 U5P       0.1822
      5 C5         39.7755    6.5077   11.1305 C.2         1 U5P       0.0062
      6 C6         39.6593    5.1726   11.2699 C.2         1 U5P       0.0591
      7 O2         42.4672    4.1803    9.4578 O.2         1 U5P      -0.3815
      8 O4         41.0404    8.1978   10.3467 O.2         1 U5P      -0.4124
      9 C1'        40.3925    2.8613   10.9745 C.3         1 U5P       0.2059
     10 C2'        41.6282    1.9163   10.9378 C.3         1 U5P       0.1387
     11 O2'        41.7850    1.3573    9.6292 O.3         1 U5P      -0.3836
     12 C3'        41.3898    0.8451   12.0196 C.3         1 U5P       0.1149
     13 C4'        39.9763    1.1619   12.5394 C.3         1 U5P       0.1182
     14 O3'        41.5031   -0.4921   11.5331 O.3         1 U5P      -0.3864
     15 O4'        39.7962    2.5599   12.2553 O.3         1 U5P      -0.3363
     16 C5'        39.8215    0.8864   14.0634 C.3         1 U5P       0.1072
     17 O5'        38.4577    0.8447   14.5290 O.3         1 U5P      -0.2734
     18 P          37.6339   -0.4658   14.3165 P.3         1 U5P       0.2008
     19 O1P        38.3410   -1.6079   13.7921 O.co2       1 U5P      -0.5537
     20 O2P        36.5156   -0.1940   13.4514 O.co2       1 U5P      -0.5537
     21 O3P        37.0829   -0.8562   15.5891 O.co2       1 U5P      -0.5537
     22 H1         42.5027    6.5218    9.4613 H           1 U5P       0.2259
     23 H2         39.0688    7.1156   11.4788 H           1 U5P       0.0258
     24 H3         38.8416    4.8262   11.7258 H           1 U5P       0.1178
     25 H4         39.6719    2.5485   10.2094 H           1 U5P       0.0997
     26 H5         42.5364    2.4555   11.2101 H           1 U5P       0.0676
     27 H6         42.4135    0.6082    9.7309 H           1 U5P       0.2101
     28 H7         42.1206    0.9701   12.8261 H           1 U5P       0.0648
     29 H8         39.2375    0.5813   11.9753 H           1 U5P       0.0650
     30 H9         41.3925   -1.0641   12.3191 H           1 U5P       0.2100
     31 H10        40.3107    1.7015   14.5996 H           1 U5P       0.0639
     32 H11        40.3584   -0.0252   14.3472 H           1 U5P       0.0639
@<TRIPOS>BOND
     1     1     2  am
     2     1     6   1
     3     1     9   1
     4     2     3  am
     5     2     7   2
     6     3     4  am
     7     4     5   1
     8     4     8   2
     9     5     6   2
    10     9    10   1
    11     9    15   1
    12    10    11   1
    13    10    12   1
    14    12    13   1
    15    12    14   1
    16    13    15   1
    17    13    16   1
    18    16    17   1
    19    17    18   1
    20    18    19  ar
    21    18    20  ar
    22    18    21  ar
    23     3    22   1
    24     5    23   1
    25     6    24   1
    26     9    25   1
    27    10    26   1
    28    11    27   1
    29    12    28   1
    30    13    29   1
    31    14    30   1
    32    16    31   1
    33    16    32   1
@<TRIPOS>SUBSTRUCTURE
     1  U5P      2

