@<TRIPOS>MOLECULE
3dxg_ligand_069
    32    33
SMALL
GAST_HUCK
****
This file was generated by PARSER (from files_GN.cpp)

@<TRIPOS>ATOM
      1 N1         39.9925    5.2468   12.9747 N.am        1 U5P      -0.1592
      2 C2         38.9977    5.7659   12.2120 C.2         1 U5P       0.3328
      3 N3         39.2650    6.2796   11.0129 N.am        1 U5P      -0.1865
      4 C4         40.5023    6.3120   10.5295 C.2         1 U5P       0.1822
      5 C5         41.5358    5.8120   11.2536 C.2         1 U5P       0.0062
      6 C6         41.2654    5.2625   12.4543 C.2         1 U5P       0.0591
      7 O2         37.8161    5.7875   12.5310 O.2         1 U5P      -0.3815
      8 O4         40.6911    6.7751    9.4159 O.2         1 U5P      -0.4124
      9 C1'        39.7911    4.6024   14.2726 C.3         1 U5P       0.2059
     10 C2'        40.7080    5.1518   15.4066 C.3         1 U5P       0.1387
     11 O2'        41.3244    4.0728   16.1153 O.3         1 U5P      -0.3836
     12 C3'        39.7406    5.9440   16.2899 C.3         1 U5P       0.1149
     13 C4'        38.4279    5.1466   16.1332 C.3         1 U5P       0.1182
     14 O3'        40.1700    6.0750   17.6420 O.3         1 U5P      -0.3864
     15 O4'        38.4432    4.6719   14.7768 O.3         1 U5P      -0.3363
     16 C5'        37.1241    5.9579   16.4309 C.3         1 U5P       0.1072
     17 O5'        36.3412    5.5346   17.5682 O.3         1 U5P      -0.2734
     18 P          37.0054    5.3683   18.9602 P.3         1 U5P       0.2008
     19 O1P        35.9331    5.3379   19.9304 O.co2       1 U5P      -0.5537
     20 O2P        37.8896    6.4530   19.3265 O.co2       1 U5P      -0.5537
     21 O3P        37.6895    4.0992   19.0822 O.co2       1 U5P      -0.5537
     22 H1         38.5364    6.6212   10.4770 H           1 U5P       0.2259
     23 H2         42.4646    5.8215   10.9010 H           1 U5P       0.0258
     24 H3         42.0228    4.8714   12.9636 H           1 U5P       0.1178
     25 H4         39.9955    3.5357   14.1320 H           1 U5P       0.0997
     26 H5         41.4968    5.8084   15.0347 H           1 U5P       0.0676
     27 H6         41.9708    4.4982   16.7147 H           1 U5P       0.2101
     28 H7         39.6285    6.9487   15.8685 H           1 U5P       0.0648
     29 H8         38.4536    4.2569   16.7714 H           1 U5P       0.0650
     30 H9         40.2086    5.1612   17.9941 H           1 U5P       0.2100
     31 H10        36.4484    5.8270   15.5802 H           1 U5P       0.0639
     32 H11        37.3232    7.0330   16.4775 H           1 U5P       0.0639
@<TRIPOS>BOND
     1     1     2  am
     2     1     6   1
     3     1     9   1
     4     2     3  am
     5     2     7   2
     6     3     4  am
     7     4     5   1
     8     4     8   2
     9     5     6   2
    10     9    10   1
    11     9    15   1
    12    10    11   1
    13    10    12   1
    14    12    13   1
    15    12    14   1
    16    13    15   1
    17    13    16   1
    18    16    17   1
    19    17    18   1
    20    18    19  ar
    21    18    20  ar
    22    18    21  ar
    23     3    22   1
    24     5    23   1
    25     6    24   1
    26     9    25   1
    27    10    26   1
    28    11    27   1
    29    12    28   1
    30    13    29   1
    31    14    30   1
    32    16    31   1
    33    16    32   1
@<TRIPOS>SUBSTRUCTURE
     1  U5P      2

