@<TRIPOS>MOLECULE
3dxg_ligand_002
    32    33
SMALL
GAST_HUCK
****
This file was generated by PARSER (from files_GN.cpp)

@<TRIPOS>ATOM
      1 N1         40.4885    4.3577   10.8852 N.am        1 U5P      -0.1592
      2 C2         41.7117    4.8190   10.5467 C.2         1 U5P       0.3328
      3 N3         42.0142    6.1032   10.7318 N.am        1 U5P      -0.1865
      4 C4         41.1346    6.9659   11.2328 C.2         1 U5P       0.1822
      5 C5         39.8998    6.5420   11.6073 C.2         1 U5P       0.0062
      6 C6         39.6022    5.2400   11.4433 C.2         1 U5P       0.0591
      7 O2         42.5932    4.1072   10.0848 O.2         1 U5P      -0.3815
      8 O4         41.4611    8.1356   11.3645 O.2         1 U5P      -0.4124
      9 C1'        40.0812    2.9799   10.6482 C.3         1 U5P       0.2059
     10 C2'        40.2789    2.0650   11.8703 C.3         1 U5P       0.1387
     11 O2'        41.6223    1.6032   12.0099 O.3         1 U5P      -0.3836
     12 C3'        39.2619    0.9443   11.6009 C.3         1 U5P       0.1149
     13 C4'        38.1268    1.6924   10.8514 C.3         1 U5P       0.1182
     14 O3'        39.8296   -0.0776   10.7716 O.3         1 U5P      -0.3864
     15 O4'        38.6930    2.8857   10.2833 O.3         1 U5P      -0.3363
     16 C5'        36.9240    2.1086   11.7413 C.3         1 U5P       0.1072
     17 O5'        37.3889    2.5471   13.0348 O.3         1 U5P      -0.2734
     18 P          36.6262    3.7182   13.7246 P.3         1 U5P       0.2008
     19 O1P        37.3796    4.1018   14.8894 O.co2       1 U5P      -0.5537
     20 O2P        35.2719    3.3945   14.1132 O.co2       1 U5P      -0.5537
     21 O3P        36.6339    4.8549   12.8315 O.co2       1 U5P      -0.5537
     22 H1         42.8977    6.4164   10.4796 H           1 U5P       0.2259
     23 H2         39.2323    7.1696   11.9920 H           1 U5P       0.0258
     24 H3         38.7044    4.9335   11.7253 H           1 U5P       0.1178
     25 H4         40.6267    2.5460    9.8029 H           1 U5P       0.0997
     26 H5         40.0078    2.5876   12.7922 H           1 U5P       0.0676
     27 H6         41.8307    1.1367   11.1729 H           1 U5P       0.2101
     28 H7         38.9168    0.4805   12.5309 H           1 U5P       0.0648
     29 H8         37.7401    1.0807   10.0306 H           1 U5P       0.0650
     30 H9         39.0667   -0.4866   10.3070 H           1 U5P       0.2100
     31 H10        36.2624    1.2566   11.8763 H           1 U5P       0.0639
     32 H11        36.3633    2.8734   11.1986 H           1 U5P       0.0639
@<TRIPOS>BOND
     1     1     2  am
     2     1     6   1
     3     1     9   1
     4     2     3  am
     5     2     7   2
     6     3     4  am
     7     4     5   1
     8     4     8   2
     9     5     6   2
    10     9    10   1
    11     9    15   1
    12    10    11   1
    13    10    12   1
    14    12    13   1
    15    12    14   1
    16    13    15   1
    17    13    16   1
    18    16    17   1
    19    17    18   1
    20    18    19  ar
    21    18    20  ar
    22    18    21  ar
    23     3    22   1
    24     5    23   1
    25     6    24   1
    26     9    25   1
    27    10    26   1
    28    11    27   1
    29    12    28   1
    30    13    29   1
    31    14    30   1
    32    16    31   1
    33    16    32   1
@<TRIPOS>SUBSTRUCTURE
     1  U5P      2

