@<TRIPOS>MOLECULE
3dxg_ligand_048
    32    33
SMALL
GAST_HUCK
****
This file was generated by PARSER (from files_GN.cpp)

@<TRIPOS>ATOM
      1 N1         35.6767   -9.7810   13.4831 N.am        1 U5P      -0.1592
      2 C2         34.7005   -9.5406   14.3921 C.2         1 U5P       0.3328
      3 N3         33.5222  -10.1557   14.2966 N.am        1 U5P      -0.1865
      4 C4         33.2489  -10.9874   13.2992 C.2         1 U5P       0.1822
      5 C5         34.1865  -11.2332   12.3425 C.2         1 U5P       0.0062
      6 C6         35.3885  -10.6345   12.4517 C.2         1 U5P       0.0591
      7 O2         34.8141   -8.7651   15.3300 O.2         1 U5P      -0.3815
      8 O4         32.1444  -11.5054   13.2395 O.2         1 U5P      -0.4124
      9 C1'        36.9893   -9.1468   13.5914 C.3         1 U5P       0.2059
     10 C2'        37.7658   -9.5889   14.8560 C.3         1 U5P       0.1387
     11 O2'        37.3823   -8.8910   16.0398 O.3         1 U5P      -0.3836
     12 C3'        39.2259   -9.3143   14.4853 C.3         1 U5P       0.1149
     13 C4'        39.2352   -9.6026   12.9705 C.3         1 U5P       0.1182
     14 O3'        39.5890   -7.9560   14.7430 O.3         1 U5P      -0.3864
     15 O4'        37.8984   -9.3713   12.4862 O.3         1 U5P      -0.3363
     16 C5'        39.6547  -11.0478   12.5946 C.3         1 U5P       0.1072
     17 O5'        39.9525  -11.0658   11.1844 O.3         1 U5P      -0.2734
     18 P          39.8951  -12.4313   10.4528 P.3         1 U5P       0.2008
     19 O1P        38.5229  -12.8539   10.3412 O.co2       1 U5P      -0.5537
     20 O2P        40.6795  -13.4588   11.0875 O.co2       1 U5P      -0.5537
     21 O3P        40.3896  -12.2478    9.1122 O.co2       1 U5P      -0.5537
     22 H1         32.8379   -9.9772   14.9642 H           1 U5P       0.2259
     23 H2         33.9904  -11.8415   11.5827 H           1 U5P       0.0258
     24 H3         36.0611  -10.8334   11.7468 H           1 U5P       0.1178
     25 H4         36.8376   -8.0630   13.6246 H           1 U5P       0.0997
     26 H5         37.6183  -10.6633   15.0207 H           1 U5P       0.0676
     27 H6         37.9043   -9.2887   16.7658 H           1 U5P       0.2101
     28 H7         39.9010   -9.9617   15.0526 H           1 U5P       0.0648
     29 H8         39.9215   -8.9141   12.4734 H           1 U5P       0.0650
     30 H9         38.9838   -7.4051   14.2012 H           1 U5P       0.2100
     31 H10        38.8413  -11.7319   12.8611 H           1 U5P       0.0639
     32 H11        40.5508  -11.3443   13.1504 H           1 U5P       0.0639
@<TRIPOS>BOND
     1     1     2  am
     2     1     6   1
     3     1     9   1
     4     2     3  am
     5     2     7   2
     6     3     4  am
     7     4     5   1
     8     4     8   2
     9     5     6   2
    10     9    10   1
    11     9    15   1
    12    10    11   1
    13    10    12   1
    14    12    13   1
    15    12    14   1
    16    13    15   1
    17    13    16   1
    18    16    17   1
    19    17    18   1
    20    18    19  ar
    21    18    20  ar
    22    18    21  ar
    23     3    22   1
    24     5    23   1
    25     6    24   1
    26     9    25   1
    27    10    26   1
    28    11    27   1
    29    12    28   1
    30    13    29   1
    31    14    30   1
    32    16    31   1
    33    16    32   1
@<TRIPOS>SUBSTRUCTURE
     1  U5P      2

