@<TRIPOS>MOLECULE
3dxg_ligand_061
    32    33
SMALL
GAST_HUCK
****
This file was generated by PARSER (from files_GN.cpp)

@<TRIPOS>ATOM
      1 N1         40.0440    3.5892   11.6173 N.am        1 U5P      -0.1592
      2 C2         39.2498    3.3981   12.6947 C.2         1 U5P       0.3328
      3 N3         38.5088    2.2941   12.7910 N.am        1 U5P      -0.1865
      4 C4         38.5247    1.3582   11.8460 C.2         1 U5P       0.1822
      5 C5         39.3011    1.5154   10.7405 C.2         1 U5P       0.0062
      6 C6         40.0476    2.6312   10.6374 C.2         1 U5P       0.0591
      7 O2         39.1592    4.1846   13.6261 O.2         1 U5P      -0.3815
      8 O4         37.8279    0.3634   11.9878 O.2         1 U5P      -0.4124
      9 C1'        40.8689    4.7799   11.4641 C.3         1 U5P       0.2059
     10 C2'        42.3952    4.5126   11.4814 C.3         1 U5P       0.1387
     11 O2'        42.9297    4.6466   12.7989 O.3         1 U5P      -0.3836
     12 C3'        42.9648    5.5398   10.4759 C.3         1 U5P       0.1149
     13 C4'        41.7184    6.3097    9.9705 C.3         1 U5P       0.1182
     14 O3'        43.9347    6.4200   11.0453 O.3         1 U5P      -0.3864
     15 O4'        40.6122    5.4300   10.2107 O.3         1 U5P      -0.3363
     16 C5'        41.7749    6.7067    8.4746 C.3         1 U5P       0.1072
     17 O5'        40.5017    7.2429    8.0506 O.3         1 U5P      -0.2734
     18 P          40.4428    8.7320    7.5939 P.3         1 U5P       0.2008
     19 O1P        41.2654    8.9652    6.4353 O.co2       1 U5P      -0.5537
     20 O2P        40.8474    9.6183    8.6534 O.co2       1 U5P      -0.5537
     21 O3P        39.0871    9.0641    7.2410 O.co2       1 U5P      -0.5537
     22 H1         37.9448    2.1677   13.5694 H           1 U5P       0.2259
     23 H2         39.3165    0.8309   10.0185 H           1 U5P       0.0258
     24 H3         40.6102    2.7460    9.8241 H           1 U5P       0.1178
     25 H4         40.6480    5.5217   12.2432 H           1 U5P       0.0997
     26 H5         42.6256    3.5014   11.1331 H           1 U5P       0.0676
     27 H6         42.5179    3.9201   13.3131 H           1 U5P       0.2101
     28 H7         43.4487    5.0032    9.6526 H           1 U5P       0.0648
     29 H8         41.5763    7.2201   10.5652 H           1 U5P       0.0650
     30 H9         43.4760    6.8617   11.7915 H           1 U5P       0.2100
     31 H10        41.9438    5.8066    7.8818 H           1 U5P       0.0639
     32 H11        42.6327    7.3713    8.3188 H           1 U5P       0.0639
@<TRIPOS>BOND
     1     1     2  am
     2     1     6   1
     3     1     9   1
     4     2     3  am
     5     2     7   2
     6     3     4  am
     7     4     5   1
     8     4     8   2
     9     5     6   2
    10     9    10   1
    11     9    15   1
    12    10    11   1
    13    10    12   1
    14    12    13   1
    15    12    14   1
    16    13    15   1
    17    13    16   1
    18    16    17   1
    19    17    18   1
    20    18    19  ar
    21    18    20  ar
    22    18    21  ar
    23     3    22   1
    24     5    23   1
    25     6    24   1
    26     9    25   1
    27    10    26   1
    28    11    27   1
    29    12    28   1
    30    13    29   1
    31    14    30   1
    32    16    31   1
    33    16    32   1
@<TRIPOS>SUBSTRUCTURE
     1  U5P      2

