@<TRIPOS>MOLECULE
3dxg_ligand_010
    32    33
SMALL
GAST_HUCK
****
This file was generated by PARSER (from files_GN.cpp)

@<TRIPOS>ATOM
      1 N1         37.3293    1.9982   12.4915 N.am        1 U5P      -0.1592
      2 C2         37.2891    2.0553   11.1380 C.2         1 U5P       0.3328
      3 N3         36.5854    1.1504   10.4562 N.am        1 U5P      -0.1865
      4 C4         35.8915    0.1959   11.0658 C.2         1 U5P       0.1822
      5 C5         35.8806    0.1233   12.4253 C.2         1 U5P       0.0062
      6 C6         36.6045    1.0220   13.1198 C.2         1 U5P       0.0591
      7 O2         37.8676    2.9025   10.4778 O.2         1 U5P      -0.3815
      8 O4         35.2247   -0.5728   10.3868 O.2         1 U5P      -0.4124
      9 C1'        38.1088    2.9459   13.2759 C.3         1 U5P       0.2059
     10 C2'        39.6314    2.9521   12.9546 C.3         1 U5P       0.1387
     11 O2'        40.4001    2.4912   14.0647 O.3         1 U5P      -0.3836
     12 C3'        39.9185    4.4240   12.6046 C.3         1 U5P       0.1149
     13 C4'        38.7297    5.1635   13.2523 C.3         1 U5P       0.1182
     14 O3'        41.1828    4.8948   13.0678 O.3         1 U5P      -0.3864
     15 O4'        37.6235    4.2777   13.0448 O.3         1 U5P      -0.3363
     16 C5'        38.4382    6.5558   12.6368 C.3         1 U5P       0.1072
     17 O5'        37.1039    7.0308   12.9294 O.3         1 U5P      -0.2734
     18 P          36.9098    7.9370   14.1817 P.3         1 U5P       0.2008
     19 O1P        37.0481    7.2130   15.4232 O.co2       1 U5P      -0.5537
     20 O2P        35.5949    8.5240   14.1198 O.co2       1 U5P      -0.5537
     21 O3P        37.8419    9.0300   14.1283 O.co2       1 U5P      -0.5537
     22 H1         36.5631    1.2050    9.4884 H           1 U5P       0.2259
     23 H2         35.3540   -0.5759   12.8962 H           1 U5P       0.0258
     24 H3         36.5911    0.9583   14.1136 H           1 U5P       0.1178
     25 H4         37.9873    2.7681   14.3534 H           1 U5P       0.0997
     26 H5         39.8748    2.3107   12.1041 H           1 U5P       0.0676
     27 H6         41.3289    2.4990   13.7488 H           1 U5P       0.2101
     28 H7         39.8841    4.5427   11.5168 H           1 U5P       0.0648
     29 H8         38.9061    5.2835   14.3289 H           1 U5P       0.0650
     30 H9         41.2447    5.8198   12.7471 H           1 U5P       0.2100
     31 H10        38.4770    6.4782   11.5478 H           1 U5P       0.0639
     32 H11        39.2337    7.2545   12.9235 H           1 U5P       0.0639
@<TRIPOS>BOND
     1     1     2  am
     2     1     6   1
     3     1     9   1
     4     2     3  am
     5     2     7   2
     6     3     4  am
     7     4     5   1
     8     4     8   2
     9     5     6   2
    10     9    10   1
    11     9    15   1
    12    10    11   1
    13    10    12   1
    14    12    13   1
    15    12    14   1
    16    13    15   1
    17    13    16   1
    18    16    17   1
    19    17    18   1
    20    18    19  ar
    21    18    20  ar
    22    18    21  ar
    23     3    22   1
    24     5    23   1
    25     6    24   1
    26     9    25   1
    27    10    26   1
    28    11    27   1
    29    12    28   1
    30    13    29   1
    31    14    30   1
    32    16    31   1
    33    16    32   1
@<TRIPOS>SUBSTRUCTURE
     1  U5P      2

