@<TRIPOS>MOLECULE
3dxg_ligand_034
    32    33
SMALL
GAST_HUCK
****
This file was generated by PARSER (from files_GN.cpp)

@<TRIPOS>ATOM
      1 N1         35.3879   -9.0915   13.1253 N.am        1 U5P      -0.1592
      2 C2         34.1015   -8.8925   13.5054 C.2         1 U5P       0.3328
      3 N3         33.3815   -9.9054   13.9836 N.am        1 U5P      -0.1865
      4 C4         33.8775  -11.1332   14.0833 C.2         1 U5P       0.1822
      5 C5         35.1677  -11.3773   13.7131 C.2         1 U5P       0.0062
      6 C6         35.9052  -10.3523   13.2517 C.2         1 U5P       0.0591
      7 O2         33.5236   -7.8166   13.4220 O.2         1 U5P      -0.3815
      8 O4         33.1758  -12.0322   14.5163 O.2         1 U5P      -0.4124
      9 C1'        36.2007   -8.0046   12.5871 C.3         1 U5P       0.2059
     10 C2'        36.6834   -7.0134   13.6698 C.3         1 U5P       0.1387
     11 O2'        35.7006   -6.0633   14.0815 O.3         1 U5P      -0.3836
     12 C3'        37.8898   -6.3371   12.9989 C.3         1 U5P       0.1149
     13 C4'        38.4564   -7.4556   12.0831 C.3         1 U5P       0.1182
     14 O3'        37.4966   -5.1847   12.2446 O.3         1 U5P      -0.3864
     15 O4'        37.4072   -8.4324   11.9195 O.3         1 U5P      -0.3363
     16 C5'        39.7516   -8.1639   12.6077 C.3         1 U5P       0.1072
     17 O5'        40.7477   -8.3178   11.5714 O.3         1 U5P      -0.2734
     18 P          41.8249   -7.1939   11.4574 P.3         1 U5P       0.2008
     19 O1P        42.4732   -7.2918   10.1759 O.co2       1 U5P      -0.5537
     20 O2P        42.8484   -7.3898   12.4531 O.co2       1 U5P      -0.5537
     21 O3P        41.2822   -5.8652   11.5856 O.co2       1 U5P      -0.5537
     22 H1         32.4668   -9.7405   14.2728 H           1 U5P       0.2259
     23 H2         35.5566  -12.2883   13.7971 H           1 U5P       0.0258
     24 H3         36.8526  -10.5415   13.0085 H           1 U5P       0.1178
     25 H4         35.6109   -7.4708   11.8329 H           1 U5P       0.0997
     26 H5         37.0246   -7.5659   14.5498 H           1 U5P       0.0676
     27 H6         35.0507   -6.5687   14.6108 H           1 U5P       0.2101
     28 H7         38.5984   -5.9964   13.7563 H           1 U5P       0.0648
     29 H8         38.6576   -7.0411   11.0876 H           1 U5P       0.0650
     30 H9         36.7420   -5.4698   11.6850 H           1 U5P       0.2100
     31 H10        39.5000   -9.1768   12.9344 H           1 U5P       0.0639
     32 H11        40.1629   -7.6749   13.4983 H           1 U5P       0.0639
@<TRIPOS>BOND
     1     1     2  am
     2     1     6   1
     3     1     9   1
     4     2     3  am
     5     2     7   2
     6     3     4  am
     7     4     5   1
     8     4     8   2
     9     5     6   2
    10     9    10   1
    11     9    15   1
    12    10    11   1
    13    10    12   1
    14    12    13   1
    15    12    14   1
    16    13    15   1
    17    13    16   1
    18    16    17   1
    19    17    18   1
    20    18    19  ar
    21    18    20  ar
    22    18    21  ar
    23     3    22   1
    24     5    23   1
    25     6    24   1
    26     9    25   1
    27    10    26   1
    28    11    27   1
    29    12    28   1
    30    13    29   1
    31    14    30   1
    32    16    31   1
    33    16    32   1
@<TRIPOS>SUBSTRUCTURE
     1  U5P      2

