@<TRIPOS>MOLECULE
3dxg_ligand_055
    32    33
SMALL
GAST_HUCK
****
This file was generated by PARSER (from files_GN.cpp)

@<TRIPOS>ATOM
      1 N1         37.2043    2.2041   12.4658 N.am        1 U5P      -0.1592
      2 C2         37.2448    2.1352   11.1155 C.2         1 U5P       0.3328
      3 N3         36.5620    1.1893   10.4718 N.am        1 U5P      -0.1865
      4 C4         35.8253    0.2916   11.1211 C.2         1 U5P       0.1822
      5 C5         35.7511    0.3288   12.4808 C.2         1 U5P       0.0062
      6 C6         36.4402    1.2847   13.1350 C.2         1 U5P       0.0591
      7 O2         37.8635    2.9255   10.4148 O.2         1 U5P      -0.3815
      8 O4         35.1785   -0.5194   10.4718 O.2         1 U5P      -0.4124
      9 C1'        37.9431    3.2129   13.2152 C.3         1 U5P       0.2059
     10 C2'        37.0585    4.2322   13.9679 C.3         1 U5P       0.1387
     11 O2'        36.6761    5.3163   13.1197 O.3         1 U5P      -0.3836
     12 C3'        37.9301    4.6515   15.1736 C.3         1 U5P       0.1149
     13 C4'        39.1478    3.6938   15.1129 C.3         1 U5P       0.1182
     14 O3'        38.3399    6.0183   15.1130 O.3         1 U5P      -0.3864
     15 O4'        38.7623    2.6244   14.2376 O.3         1 U5P      -0.3363
     16 C5'        39.5966    3.1260   16.4862 C.3         1 U5P       0.1072
     17 O5'        39.9103    4.1441   17.4638 O.3         1 U5P      -0.2734
     18 P          41.2786    4.8836   17.3448 P.3         1 U5P       0.2008
     19 O1P        41.3861    5.7852   18.4646 O.co2       1 U5P      -0.5537
     20 O2P        41.3993    5.6814   16.1512 O.co2       1 U5P      -0.5537
     21 O3P        42.3864    3.9651   17.4382 O.co2       1 U5P      -0.5537
     22 H1         36.5780    1.1709    9.5022 H           1 U5P       0.2259
     23 H2         35.2002   -0.3319   12.9805 H           1 U5P       0.0258
     24 H3         36.3819    1.3031   14.1290 H           1 U5P       0.1178
     25 H4         38.6216    3.7722   12.5565 H           1 U5P       0.0997
     26 H5         36.1475    3.7500   14.3329 H           1 U5P       0.0676
     27 H6         36.2397    5.9625   13.7119 H           1 U5P       0.2101
     28 H7         37.3610    4.5116   16.0969 H           1 U5P       0.0648
     29 H8         39.9989    4.2043   14.6508 H           1 U5P       0.0650
     30 H9         38.8281    6.1776   15.9474 H           1 U5P       0.2100
     31 H10        40.4193    2.4154   16.3446 H           1 U5P       0.0639
     32 H11        38.7634    2.5551   16.9001 H           1 U5P       0.0639
@<TRIPOS>BOND
     1     1     2  am
     2     1     6   1
     3     1     9   1
     4     2     3  am
     5     2     7   2
     6     3     4  am
     7     4     5   1
     8     4     8   2
     9     5     6   2
    10     9    10   1
    11     9    15   1
    12    10    11   1
    13    10    12   1
    14    12    13   1
    15    12    14   1
    16    13    15   1
    17    13    16   1
    18    16    17   1
    19    17    18   1
    20    18    19  ar
    21    18    20  ar
    22    18    21  ar
    23     3    22   1
    24     5    23   1
    25     6    24   1
    26     9    25   1
    27    10    26   1
    28    11    27   1
    29    12    28   1
    30    13    29   1
    31    14    30   1
    32    16    31   1
    33    16    32   1
@<TRIPOS>SUBSTRUCTURE
     1  U5P      2

