@<TRIPOS>MOLECULE
3dxg_ligand_059
    32    33
SMALL
GAST_HUCK
****
This file was generated by PARSER (from files_GN.cpp)

@<TRIPOS>ATOM
      1 N1         38.9181    7.3552   16.5088 N.am        1 U5P      -0.1592
      2 C2         38.7805    7.7751   17.7906 C.2         1 U5P       0.3328
      3 N3         39.2136    8.9844   18.1525 N.am        1 U5P      -0.1865
      4 C4         39.7878    9.8092   17.2802 C.2         1 U5P       0.1822
      5 C5         39.9342    9.4320   15.9781 C.2         1 U5P       0.0062
      6 C6         39.4879    8.2150   15.6080 C.2         1 U5P       0.0591
      7 O2         38.2722    7.0946   18.6713 O.2         1 U5P      -0.3815
      8 O4         40.1679   10.9070   17.6634 O.2         1 U5P      -0.4124
      9 C1'        38.4354    6.0462   16.0873 C.3         1 U5P       0.2059
     10 C2'        37.0055    6.1182   15.5009 C.3         1 U5P       0.1387
     11 O2'        36.0232    5.8834   16.5070 O.3         1 U5P      -0.3836
     12 C3'        36.9943    5.0705   14.3671 C.3         1 U5P       0.1149
     13 C4'        38.4102    4.4481   14.4065 C.3         1 U5P       0.1182
     14 O3'        35.9700    4.0833   14.4947 O.3         1 U5P      -0.3864
     15 O4'        39.2324    5.4153   15.0699 O.3         1 U5P      -0.3363
     16 C5'        39.0217    4.0514   13.0236 C.3         1 U5P       0.1072
     17 O5'        39.9919    4.9927   12.5149 O.3         1 U5P      -0.2734
     18 P          39.5152    6.2831   11.7709 P.3         1 U5P       0.2008
     19 O1P        38.0987    6.5389   11.7913 O.co2       1 U5P      -0.5537
     20 O2P        39.9443    6.2136   10.3921 O.co2       1 U5P      -0.5537
     21 O3P        40.1886    7.4228   12.3431 O.co2       1 U5P      -0.5537
     22 H1         39.1050    9.2717   19.0764 H           1 U5P       0.2259
     23 H2         40.3497   10.0408   15.3129 H           1 U5P       0.0258
     24 H3         39.5751    7.9653   14.6464 H           1 U5P       0.1178
     25 H4         38.4560    5.3648   16.9478 H           1 U5P       0.0997
     26 H5         36.8199    7.1105   15.0742 H           1 U5P       0.0676
     27 H6         35.1626    6.1120   16.0920 H           1 U5P       0.2101
     28 H7         36.8201    5.5810   13.4170 H           1 U5P       0.0648
     29 H8         38.3829    3.5526   15.0389 H           1 U5P       0.0650
     30 H9         36.0801    3.7075   15.3925 H           1 U5P       0.2100
     31 H10        38.2390    3.8153   12.2981 H           1 U5P       0.0639
     32 H11        39.5865    3.1295   13.1674 H           1 U5P       0.0639
@<TRIPOS>BOND
     1     1     2  am
     2     1     6   1
     3     1     9   1
     4     2     3  am
     5     2     7   2
     6     3     4  am
     7     4     5   1
     8     4     8   2
     9     5     6   2
    10     9    10   1
    11     9    15   1
    12    10    11   1
    13    10    12   1
    14    12    13   1
    15    12    14   1
    16    13    15   1
    17    13    16   1
    18    16    17   1
    19    17    18   1
    20    18    19  ar
    21    18    20  ar
    22    18    21  ar
    23     3    22   1
    24     5    23   1
    25     6    24   1
    26     9    25   1
    27    10    26   1
    28    11    27   1
    29    12    28   1
    30    13    29   1
    31    14    30   1
    32    16    31   1
    33    16    32   1
@<TRIPOS>SUBSTRUCTURE
     1  U5P      2

