@<TRIPOS>MOLECULE
3dxg_ligand_037
    32    33
SMALL
GAST_HUCK
****
This file was generated by PARSER (from files_GN.cpp)

@<TRIPOS>ATOM
      1 N1         40.1148    5.1142   11.8627 N.am        1 U5P      -0.1592
      2 C2         40.5524    6.1001   11.0454 C.2         1 U5P       0.3328
      3 N3         41.3658    5.8168   10.0286 N.am        1 U5P      -0.1865
      4 C4         41.7802    4.5755    9.7897 C.2         1 U5P       0.1822
      5 C5         41.3630    3.5524   10.5840 C.2         1 U5P       0.0062
      6 C6         40.5409    3.8360   11.6135 C.2         1 U5P       0.0591
      7 O2         40.2533    7.2795   11.1837 O.2         1 U5P      -0.3815
      8 O4         42.5580    4.3725    8.8685 O.2         1 U5P      -0.4124
      9 C1'        39.2240    5.3759   12.9875 C.3         1 U5P       0.2059
     10 C2'        39.8674    6.2344   14.1018 C.3         1 U5P       0.1387
     11 O2'        40.4582    5.4308   15.1251 O.3         1 U5P      -0.3836
     12 C3'        38.7050    7.1103   14.6132 C.3         1 U5P       0.1149
     13 C4'        37.4793    6.7050   13.7493 C.3         1 U5P       0.1182
     14 O3'        38.4355    6.9304   16.0037 O.3         1 U5P      -0.3864
     15 O4'        38.0341    6.0782   12.5791 O.3         1 U5P      -0.3363
     16 C5'        36.5277    7.8848   13.3607 C.3         1 U5P       0.1072
     17 O5'        35.2282    7.8388   13.9842 O.3         1 U5P      -0.2734
     18 P          34.0841    7.0916   13.2368 P.3         1 U5P       0.2008
     19 O1P        34.1980    5.6582   13.3242 O.co2       1 U5P      -0.5537
     20 O2P        33.9476    7.4957   11.8616 O.co2       1 U5P      -0.5537
     21 O3P        32.8479    7.4502   13.8829 O.co2       1 U5P      -0.5537
     22 H1         41.6729    6.5360    9.4541 H           1 U5P       0.2259
     23 H2         41.6645    2.6192   10.4176 H           1 U5P       0.0258
     24 H3         40.2603    3.0833   12.2005 H           1 U5P       0.1178
     25 H4         38.8841    4.4383   13.4468 H           1 U5P       0.0997
     26 H5         40.6527    6.8787   13.6977 H           1 U5P       0.0676
     27 H6         41.2118    4.9726   14.6959 H           1 U5P       0.2101
     28 H7         38.9762    8.1566   14.4570 H           1 U5P       0.0648
     29 H8         36.8989    5.9439   14.2827 H           1 U5P       0.0650
     30 H9         37.7614    7.6074   16.2226 H           1 U5P       0.2100
     31 H10        36.4529    7.9636   12.2714 H           1 U5P       0.0639
     32 H11        36.9566    8.8321   13.6891 H           1 U5P       0.0639
@<TRIPOS>BOND
     1     1     2  am
     2     1     6   1
     3     1     9   1
     4     2     3  am
     5     2     7   2
     6     3     4  am
     7     4     5   1
     8     4     8   2
     9     5     6   2
    10     9    10   1
    11     9    15   1
    12    10    11   1
    13    10    12   1
    14    12    13   1
    15    12    14   1
    16    13    15   1
    17    13    16   1
    18    16    17   1
    19    17    18   1
    20    18    19  ar
    21    18    20  ar
    22    18    21  ar
    23     3    22   1
    24     5    23   1
    25     6    24   1
    26     9    25   1
    27    10    26   1
    28    11    27   1
    29    12    28   1
    30    13    29   1
    31    14    30   1
    32    16    31   1
    33    16    32   1
@<TRIPOS>SUBSTRUCTURE
     1  U5P      2

