@<TRIPOS>MOLECULE
3dxg_ligand_056
    32    33
SMALL
GAST_HUCK
****
This file was generated by PARSER (from files_GN.cpp)

@<TRIPOS>ATOM
      1 N1         37.9290    1.7709   12.9053 N.am        1 U5P      -0.1592
      2 C2         38.8688    2.6146   13.3928 C.2         1 U5P       0.3328
      3 N3         38.6528    3.9301   13.4004 N.am        1 U5P      -0.1865
      4 C4         37.5260    4.4534   12.9247 C.2         1 U5P       0.1822
      5 C5         36.5477    3.6433   12.4319 C.2         1 U5P       0.0062
      6 C6         36.7628    2.3161   12.4314 C.2         1 U5P       0.0591
      7 O2         39.9567    2.2599   13.8272 O.2         1 U5P      -0.3815
      8 O4         37.3904    5.6705   12.9297 O.2         1 U5P      -0.4124
      9 C1'        38.0889    0.3219   12.8465 C.3         1 U5P       0.2059
     10 C2'        38.3228   -0.1961   11.4082 C.3         1 U5P       0.1387
     11 O2'        37.1300   -0.3070   10.6278 O.3         1 U5P      -0.3836
     12 C3'        39.0074   -1.5494   11.6602 C.3         1 U5P       0.1149
     13 C4'        39.8398   -1.2630   12.9285 C.3         1 U5P       0.1182
     14 O3'        38.0590   -2.5866   11.9162 O.3         1 U5P      -0.3864
     15 O4'        39.1566   -0.2212   13.6458 O.3         1 U5P      -0.3363
     16 C5'        41.2909   -0.8110   12.6323 C.3         1 U5P       0.1072
     17 O5'        42.0576   -1.9135   12.0947 O.3         1 U5P      -0.2734
     18 P          42.7803   -1.7047   10.7310 P.3         1 U5P       0.2008
     19 O1P        41.8135   -1.7331    9.6572 O.co2       1 U5P      -0.5537
     20 O2P        43.6683   -2.8195   10.5196 O.co2       1 U5P      -0.5537
     21 O3P        43.5621   -0.4917   10.6599 O.co2       1 U5P      -0.5537
     22 H1         39.3393    4.5216   13.7487 H           1 U5P       0.2259
     23 H2         35.6976    4.0223   12.0899 H           1 U5P       0.0258
     24 H3         36.0393    1.7329   12.0792 H           1 U5P       0.1178
     25 H4         37.1806   -0.1432   13.2465 H           1 U5P       0.0997
     26 H5         39.0113    0.4734   10.8806 H           1 U5P       0.0676
     27 H6         36.5665   -0.9567   11.0927 H           1 U5P       0.2101
     28 H7         39.6244   -1.8469   10.8045 H           1 U5P       0.0648
     29 H8         39.8742   -2.1492   13.5678 H           1 U5P       0.0650
     30 H9         37.7239   -2.8524   11.0354 H           1 U5P       0.2100
     31 H10        41.7671   -0.5190   13.5704 H           1 U5P       0.0639
     32 H11        41.2560    0.0794   11.9933 H           1 U5P       0.0639
@<TRIPOS>BOND
     1     1     2  am
     2     1     6   1
     3     1     9   1
     4     2     3  am
     5     2     7   2
     6     3     4  am
     7     4     5   1
     8     4     8   2
     9     5     6   2
    10     9    10   1
    11     9    15   1
    12    10    11   1
    13    10    12   1
    14    12    13   1
    15    12    14   1
    16    13    15   1
    17    13    16   1
    18    16    17   1
    19    17    18   1
    20    18    19  ar
    21    18    20  ar
    22    18    21  ar
    23     3    22   1
    24     5    23   1
    25     6    24   1
    26     9    25   1
    27    10    26   1
    28    11    27   1
    29    12    28   1
    30    13    29   1
    31    14    30   1
    32    16    31   1
    33    16    32   1
@<TRIPOS>SUBSTRUCTURE
     1  U5P      2

