@<TRIPOS>MOLECULE
3dxg_ligand_051
    32    33
SMALL
GAST_HUCK
****
This file was generated by PARSER (from files_GN.cpp)

@<TRIPOS>ATOM
      1 N1         40.7749    5.8363   11.5602 N.am        1 U5P      -0.1592
      2 C2         41.2601    6.6367   10.5853 C.2         1 U5P       0.3328
      3 N3         42.0254    6.1270    9.6226 N.am        1 U5P      -0.1865
      4 C4         42.3139    4.8305    9.5753 C.2         1 U5P       0.1822
      5 C5         41.7997    3.9819   10.5073 C.2         1 U5P       0.0062
      6 C6         41.0329    4.4973   11.4856 C.2         1 U5P       0.0591
      7 O2         41.0547    7.8426   10.5330 O.2         1 U5P      -0.3815
      8 O4         43.0694    4.4208    8.7054 O.2         1 U5P      -0.4124
      9 C1'        40.0051    6.3553   12.6787 C.3         1 U5P       0.2059
     10 C2'        38.4979    6.0432   12.5967 C.3         1 U5P       0.1387
     11 O2'        37.7946    7.0285   11.8382 O.3         1 U5P      -0.3836
     12 C3'        38.0510    5.9707   14.0770 C.3         1 U5P       0.1149
     13 C4'        39.3606    6.1565   14.8773 C.3         1 U5P       0.1182
     14 O3'        37.0999    6.9764   14.4387 O.3         1 U5P      -0.3864
     15 O4'        40.4026    5.8125   13.9485 O.3         1 U5P      -0.3363
     16 C5'        39.4726    5.3270   16.1836 C.3         1 U5P       0.1072
     17 O5'        38.7815    5.9740   17.2745 O.3         1 U5P      -0.2734
     18 P          37.3482    5.5075   17.6712 P.3         1 U5P       0.2008
     19 O1P        36.4688    5.1891   16.5769 O.co2       1 U5P      -0.5537
     20 O2P        36.7537    6.6286   18.3618 O.co2       1 U5P      -0.5537
     21 O3P        37.3771    4.4186   18.6220 O.co2       1 U5P      -0.5537
     22 H1         42.3905    6.7148    8.9440 H           1 U5P       0.2259
     23 H2         41.9884    3.0059   10.4732 H           1 U5P       0.0258
     24 H3         40.6645    3.8745   12.1664 H           1 U5P       0.1178
     25 H4         40.1219    7.4411   12.7591 H           1 U5P       0.0997
     26 H5         38.3258    5.0699   12.1232 H           1 U5P       0.0676
     27 H6         38.0591    6.8880   10.9019 H           1 U5P       0.2101
     28 H7         37.6079    4.9869   14.2681 H           1 U5P       0.0648
     29 H8         39.4926    7.2139   15.1369 H           1 U5P       0.0650
     30 H9         36.2870    6.7677   13.9307 H           1 U5P       0.2100
     31 H10        40.5290    5.3195   16.4696 H           1 U5P       0.0639
     32 H11        39.1770    4.2846   16.0236 H           1 U5P       0.0639
@<TRIPOS>BOND
     1     1     2  am
     2     1     6   1
     3     1     9   1
     4     2     3  am
     5     2     7   2
     6     3     4  am
     7     4     5   1
     8     4     8   2
     9     5     6   2
    10     9    10   1
    11     9    15   1
    12    10    11   1
    13    10    12   1
    14    12    13   1
    15    12    14   1
    16    13    15   1
    17    13    16   1
    18    16    17   1
    19    17    18   1
    20    18    19  ar
    21    18    20  ar
    22    18    21  ar
    23     3    22   1
    24     5    23   1
    25     6    24   1
    26     9    25   1
    27    10    26   1
    28    11    27   1
    29    12    28   1
    30    13    29   1
    31    14    30   1
    32    16    31   1
    33    16    32   1
@<TRIPOS>SUBSTRUCTURE
     1  U5P      2

