@<TRIPOS>MOLECULE
3dxg_ligand_007
    32    33
SMALL
GAST_HUCK
****
This file was generated by PARSER (from files_GN.cpp)

@<TRIPOS>ATOM
      1 N1         37.9745    1.3427   12.3266 N.am        1 U5P      -0.1592
      2 C2         36.8305    0.7570   12.7551 C.2         1 U5P       0.3328
      3 N3         35.9400    1.4709   13.4546 N.am        1 U5P      -0.1865
      4 C4         36.1255    2.7598   13.7287 C.2         1 U5P       0.1822
      5 C5         37.2615    3.3819   13.3025 C.2         1 U5P       0.0062
      6 C6         38.1762    2.6628   12.6268 C.2         1 U5P       0.0591
      7 O2         36.5489   -0.4225   12.5786 O.2         1 U5P      -0.3815
      8 O4         35.2859    3.3619   14.3833 O.2         1 U5P      -0.4124
      9 C1'        39.0074    0.5970   11.6235 C.3         1 U5P       0.2059
     10 C2'        39.5681    1.2166   10.3233 C.3         1 U5P       0.1387
     11 O2'        38.6650    1.1056    9.2264 O.3         1 U5P      -0.3836
     12 C3'        40.9035    0.4582   10.1455 C.3         1 U5P       0.1149
     13 C4'        41.2661    0.0701   11.6110 C.3         1 U5P       0.1182
     14 O3'        40.7791   -0.6938    9.3008 O.3         1 U5P      -0.3864
     15 O4'        40.1701    0.4710   12.4538 O.3         1 U5P      -0.3363
     16 C5'        42.5533    0.7495   12.1706 C.3         1 U5P       0.1072
     17 O5'        43.7954    0.2700   11.6017 O.3         1 U5P      -0.2734
     18 P          44.2655   -1.1632   11.9817 P.3         1 U5P       0.2008
     19 O1P        45.7025   -1.2179   11.8361 O.co2       1 U5P      -0.5537
     20 O2P        43.7030   -2.1742   11.1202 O.co2       1 U5P      -0.5537
     21 O3P        43.9801   -1.4970   13.3600 O.co2       1 U5P      -0.5537
     22 H1         35.1486    1.0203   13.8068 H           1 U5P       0.2259
     23 H2         37.4174    4.3439   13.5016 H           1 U5P       0.0258
     24 H3         39.0235    3.1146   12.3642 H           1 U5P       0.1178
     25 H4         38.6726   -0.4220   11.3875 H           1 U5P       0.0997
     26 H5         39.7855    2.2822   10.4612 H           1 U5P       0.0676
     27 H6         38.2897    0.2026    9.2730 H           1 U5P       0.2101
     28 H7         41.6602    1.1157    9.6935 H           1 U5P       0.0648
     29 H8         41.3559   -1.0188   11.6977 H           1 U5P       0.0650
     30 H9         39.8994   -1.0737    9.4868 H           1 U5P       0.2100
     31 H10        42.5516    0.6861   13.2692 H           1 U5P       0.0639
     32 H11        42.4969    1.8128   11.9430 H           1 U5P       0.0639
@<TRIPOS>BOND
     1     1     2  am
     2     1     6   1
     3     1     9   1
     4     2     3  am
     5     2     7   2
     6     3     4  am
     7     4     5   1
     8     4     8   2
     9     5     6   2
    10     9    10   1
    11     9    15   1
    12    10    11   1
    13    10    12   1
    14    12    13   1
    15    12    14   1
    16    13    15   1
    17    13    16   1
    18    16    17   1
    19    17    18   1
    20    18    19  ar
    21    18    20  ar
    22    18    21  ar
    23     3    22   1
    24     5    23   1
    25     6    24   1
    26     9    25   1
    27    10    26   1
    28    11    27   1
    29    12    28   1
    30    13    29   1
    31    14    30   1
    32    16    31   1
    33    16    32   1
@<TRIPOS>SUBSTRUCTURE
     1  U5P      2

