@<TRIPOS>MOLECULE
3dxg_ligand_032
    32    33
SMALL
GAST_HUCK
****
This file was generated by PARSER (from files_GN.cpp)

@<TRIPOS>ATOM
      1 N1         41.3219    5.6258   10.0345 N.am        1 U5P      -0.1592
      2 C2         40.9283    6.9174   10.0468 C.2         1 U5P       0.3328
      3 N3         41.2312    7.7300    9.0294 N.am        1 U5P      -0.1865
      4 C4         41.8847    7.2855    7.9580 C.2         1 U5P       0.1822
      5 C5         42.2495    5.9781    7.8776 C.2         1 U5P       0.0062
      6 C6         41.9726    5.1706    8.9158 C.2         1 U5P       0.0591
      7 O2         40.2776    7.4063   10.9611 O.2         1 U5P      -0.3815
      8 O4         42.1247    8.0551    7.0374 O.2         1 U5P      -0.4124
      9 C1'        41.0090    4.6867   11.1090 C.3         1 U5P       0.2059
     10 C2'        41.1077    5.2129   12.5706 C.3         1 U5P       0.1387
     11 O2'        42.0790    4.4738   13.3318 O.3         1 U5P      -0.3836
     12 C3'        39.6717    5.0270   13.1085 C.3         1 U5P       0.1149
     13 C4'        39.0837    3.9296   12.1899 C.3         1 U5P       0.1182
     14 O3'        39.6356    4.6819   14.4919 O.3         1 U5P      -0.3864
     15 O4'        39.6597    4.2302   10.9108 O.3         1 U5P      -0.3363
     16 C5'        37.5274    3.8661   12.0416 C.3         1 U5P       0.1072
     17 O5'        36.8048    4.8023   12.8646 O.3         1 U5P      -0.2734
     18 P          36.4521    4.3868   14.3239 P.3         1 U5P       0.2008
     19 O1P        37.4066    3.5124   14.9530 O.co2       1 U5P      -0.5537
     20 O2P        35.1434    3.7767   14.3786 O.co2       1 U5P      -0.5537
     21 O3P        36.3886    5.6072   15.0995 O.co2       1 U5P      -0.5537
     22 H1         40.9602    8.6636    9.0638 H           1 U5P       0.2259
     23 H2         42.6830    5.6153    7.0565 H           1 U5P       0.0258
     24 H3         42.2185    4.2102    8.8303 H           1 U5P       0.1178
     25 H4         41.6459    3.7939   11.0437 H           1 U5P       0.0997
     26 H5         41.4004    6.2711   12.5958 H           1 U5P       0.0676
     27 H6         42.1050    4.9049   14.2127 H           1 U5P       0.2101
     28 H7         39.1143    5.9572   12.9739 H           1 U5P       0.0648
     29 H8         39.4442    2.9408   12.5121 H           1 U5P       0.0650
     30 H9         39.9661    5.4887   14.9568 H           1 U5P       0.2100
     31 H10        37.1736    2.8358   12.1684 H           1 U5P       0.0639
     32 H11        37.2691    4.1365   11.0174 H           1 U5P       0.0639
@<TRIPOS>BOND
     1     1     2  am
     2     1     6   1
     3     1     9   1
     4     2     3  am
     5     2     7   2
     6     3     4  am
     7     4     5   1
     8     4     8   2
     9     5     6   2
    10     9    10   1
    11     9    15   1
    12    10    11   1
    13    10    12   1
    14    12    13   1
    15    12    14   1
    16    13    15   1
    17    13    16   1
    18    16    17   1
    19    17    18   1
    20    18    19  ar
    21    18    20  ar
    22    18    21  ar
    23     3    22   1
    24     5    23   1
    25     6    24   1
    26     9    25   1
    27    10    26   1
    28    11    27   1
    29    12    28   1
    30    13    29   1
    31    14    30   1
    32    16    31   1
    33    16    32   1
@<TRIPOS>SUBSTRUCTURE
     1  U5P      2

