@<TRIPOS>MOLECULE
3dxg_ligand_064
    32    33
SMALL
GAST_HUCK
****
This file was generated by PARSER (from files_GN.cpp)

@<TRIPOS>ATOM
      1 N1         34.7146  -10.1567   14.2141 N.am        1 U5P      -0.1592
      2 C2         33.4791   -9.7479   13.8460 C.2         1 U5P       0.3328
      3 N3         32.5139  -10.6405   13.6227 N.am        1 U5P      -0.1865
      4 C4         32.7181  -11.9469   13.7809 C.2         1 U5P       0.1822
      5 C5         33.9285  -12.4011   14.1999 C.2         1 U5P       0.0062
      6 C6         34.9091  -11.5020   14.4138 C.2         1 U5P       0.0591
      7 O2         33.1398   -8.5746   13.7268 O.2         1 U5P      -0.3815
      8 O4         31.7927  -12.7162   13.5662 O.2         1 U5P      -0.4124
      9 C1'        35.8542   -9.2650   14.4060 C.3         1 U5P       0.2059
     10 C2'        37.0659   -9.6151   13.4930 C.3         1 U5P       0.1387
     11 O2'        38.1286  -10.1703   14.2723 O.3         1 U5P      -0.3836
     12 C3'        37.4474   -8.2928   12.8020 C.3         1 U5P       0.1149
     13 C4'        36.7382   -7.2265   13.6567 C.3         1 U5P       0.1182
     14 O3'        38.8535   -8.0731   12.6839 O.3         1 U5P      -0.3864
     15 O4'        35.5750   -7.8725   14.1881 O.3         1 U5P      -0.3363
     16 C5'        36.3302   -5.9157   12.9155 C.3         1 U5P       0.1072
     17 O5'        34.9221   -5.8173   12.6092 O.3         1 U5P      -0.2734
     18 P          34.2768   -6.7413   11.5366 P.3         1 U5P       0.2008
     19 O1P        32.8910   -6.8756   11.9097 O.co2       1 U5P      -0.5537
     20 O2P        34.7805   -8.0921   11.5227 O.co2       1 U5P      -0.5537
     21 O3P        34.3246   -6.1969   10.1980 O.co2       1 U5P      -0.5537
     22 H1         31.6342  -10.3231   13.3577 H           1 U5P       0.2259
     23 H2         34.0893  -13.3699   14.3485 H           1 U5P       0.0258
     24 H3         35.7909  -11.8424   14.7242 H           1 U5P       0.1178
     25 H4         36.1574   -9.3328   15.4576 H           1 U5P       0.0997
     26 H5         36.7908  -10.3532   12.7334 H           1 U5P       0.0676
     27 H6         38.8181  -10.4254   13.6238 H           1 U5P       0.2101
     28 H7         37.0409   -8.2901   11.7906 H           1 U5P       0.0648
     29 H8         37.3948   -6.9723   14.4974 H           1 U5P       0.0650
     30 H9         39.2055   -8.1114   13.5961 H           1 U5P       0.2100
     31 H10        36.9622   -5.7407   12.0387 H           1 U5P       0.0639
     32 H11        36.5253   -5.0844   13.5988 H           1 U5P       0.0639
@<TRIPOS>BOND
     1     1     2  am
     2     1     6   1
     3     1     9   1
     4     2     3  am
     5     2     7   2
     6     3     4  am
     7     4     5   1
     8     4     8   2
     9     5     6   2
    10     9    10   1
    11     9    15   1
    12    10    11   1
    13    10    12   1
    14    12    13   1
    15    12    14   1
    16    13    15   1
    17    13    16   1
    18    16    17   1
    19    17    18   1
    20    18    19  ar
    21    18    20  ar
    22    18    21  ar
    23     3    22   1
    24     5    23   1
    25     6    24   1
    26     9    25   1
    27    10    26   1
    28    11    27   1
    29    12    28   1
    30    13    29   1
    31    14    30   1
    32    16    31   1
    33    16    32   1
@<TRIPOS>SUBSTRUCTURE
     1  U5P      2

