@<TRIPOS>MOLECULE
3dxg_ligand_033
    32    33
SMALL
GAST_HUCK
****
This file was generated by PARSER (from files_GN.cpp)

@<TRIPOS>ATOM
      1 N1         38.6376    5.4414   13.2680 N.am        1 U5P      -0.1592
      2 C2         38.9389    5.0698   12.0042 C.2         1 U5P       0.3328
      3 N3         39.7827    5.7913   11.2729 N.am        1 U5P      -0.1865
      4 C4         40.3430    6.8999   11.7488 C.2         1 U5P       0.1822
      5 C5         40.0561    7.3293   13.0064 C.2         1 U5P       0.0062
      6 C6         39.2112    6.5897   13.7536 C.2         1 U5P       0.0591
      7 O2         38.4670    4.0880   11.4410 O.2         1 U5P      -0.3815
      8 O4         41.0995    7.5386   11.0285 O.2         1 U5P      -0.4124
      9 C1'        37.7249    4.6921   14.1290 C.3         1 U5P       0.2059
     10 C2'        36.2776    5.2578   14.0916 C.3         1 U5P       0.1387
     11 O2'        35.7572    5.4068   15.4192 O.3         1 U5P      -0.3836
     12 C3'        35.5284    4.1778   13.2924 C.3         1 U5P       0.1149
     13 C4'        36.2981    2.8912   13.6571 C.3         1 U5P       0.1182
     14 O3'        34.1386    4.0948   13.5993 O.3         1 U5P      -0.3864
     15 O4'        37.6702    3.2908   13.7784 O.3         1 U5P      -0.3363
     16 C5'        36.1397    1.7560   12.6148 C.3         1 U5P       0.1072
     17 O5'        37.2434    0.8342   12.6097 O.3         1 U5P      -0.2734
     18 P          37.1745   -0.4138   13.5301 P.3         1 U5P       0.2008
     19 O1P        38.3379   -1.2197   13.2548 O.co2       1 U5P      -0.5537
     20 O2P        36.0174   -1.2203   13.2414 O.co2       1 U5P      -0.5537
     21 O3P        37.2060   -0.0708   14.9316 O.co2       1 U5P      -0.5537
     22 H1         40.0016    5.5066   10.3735 H           1 U5P       0.2259
     23 H2         40.4525    8.1638   13.3706 H           1 U5P       0.0258
     24 H3         39.0009    6.9094   14.6719 H           1 U5P       0.1178
     25 H4         38.0962    4.7117   15.1612 H           1 U5P       0.0997
     26 H5         36.2223    6.2341   13.5868 H           1 U5P       0.0676
     27 H6         34.8517    5.7631   15.3035 H           1 U5P       0.2101
     28 H7         35.6304    4.4030   12.2270 H           1 U5P       0.0648
     29 H8         35.9607    2.5312   14.6329 H           1 U5P       0.0650
     30 H9         33.7496    4.9354   13.2705 H           1 U5P       0.2100
     31 H10        36.1326    2.1931   11.6150 H           1 U5P       0.0639
     32 H11        35.1783    1.2611   12.7452 H           1 U5P       0.0639
@<TRIPOS>BOND
     1     1     2  am
     2     1     6   1
     3     1     9   1
     4     2     3  am
     5     2     7   2
     6     3     4  am
     7     4     5   1
     8     4     8   2
     9     5     6   2
    10     9    10   1
    11     9    15   1
    12    10    11   1
    13    10    12   1
    14    12    13   1
    15    12    14   1
    16    13    15   1
    17    13    16   1
    18    16    17   1
    19    17    18   1
    20    18    19  ar
    21    18    20  ar
    22    18    21  ar
    23     3    22   1
    24     5    23   1
    25     6    24   1
    26     9    25   1
    27    10    26   1
    28    11    27   1
    29    12    28   1
    30    13    29   1
    31    14    30   1
    32    16    31   1
    33    16    32   1
@<TRIPOS>SUBSTRUCTURE
     1  U5P      2

