@<TRIPOS>MOLECULE
3dxg_ligand_062
    32    33
SMALL
GAST_HUCK
****
This file was generated by PARSER (from files_GN.cpp)

@<TRIPOS>ATOM
      1 N1         37.7651    1.6649   12.4457 N.am        1 U5P      -0.1592
      2 C2         37.6890    1.8268   11.1053 C.2         1 U5P       0.3328
      3 N3         36.8632    1.0704   10.3870 N.am        1 U5P      -0.1865
      4 C4         36.0761    0.1576   10.9456 C.2         1 U5P       0.1822
      5 C5         36.0896   -0.0163   12.2881 C.2         1 U5P       0.0062
      6 C6         36.9174    0.7499   13.0230 C.2         1 U5P       0.0591
      7 O2         38.2994    2.6767   10.4717 O.2         1 U5P      -0.3815
      8 O4         35.2923   -0.4615   10.2416 O.2         1 U5P      -0.4124
      9 C1'        38.6053    2.5242   13.2904 C.3         1 U5P       0.2059
     10 C2'        39.3075    1.8314   14.4991 C.3         1 U5P       0.1387
     11 O2'        38.5154    1.7543   15.6804 O.3         1 U5P      -0.3836
     12 C3'        40.5470    2.7043   14.7207 C.3         1 U5P       0.1149
     13 C4'        40.9261    3.0696   13.2712 C.3         1 U5P       0.1182
     14 O3'        40.2498    3.8756   15.4881 O.3         1 U5P      -0.3864
     15 O4'        39.6742    3.2201   12.5889 O.3         1 U5P      -0.3363
     16 C5'        41.7985    2.0149   12.5244 C.3         1 U5P       0.1072
     17 O5'        42.9524    1.6945   13.3406 O.3         1 U5P      -0.2734
     18 P          43.7335    0.3853   12.9915 P.3         1 U5P       0.2008
     19 O1P        44.7922    0.2126   13.9614 O.co2       1 U5P      -0.5537
     20 O2P        44.3059    0.4239   11.6717 O.co2       1 U5P      -0.5537
     21 O3P        42.8540   -0.7593   13.1103 O.co2       1 U5P      -0.5537
     22 H1         36.7968    1.2140    9.4328 H           1 U5P       0.2259
     23 H2         35.4878   -0.6604   12.7324 H           1 U5P       0.0258
     24 H3         36.9023    0.6300   14.0116 H           1 U5P       0.1178
     25 H4         37.9609    3.3164   13.6919 H           1 U5P       0.0997
     26 H5         39.6115    0.8180   14.2224 H           1 U5P       0.0676
     27 H6         39.0939    1.3354   16.3490 H           1 U5P       0.2101
     28 H7         41.3308    2.1474   15.2439 H           1 U5P       0.0648
     29 H8         41.4529    4.0268   13.2528 H           1 U5P       0.0650
     30 H9         39.5317    4.3436   15.0095 H           1 U5P       0.2100
     31 H10        42.1411    2.4487   11.5701 H           1 U5P       0.0639
     32 H11        41.1759    1.1288   12.3003 H           1 U5P       0.0639
@<TRIPOS>BOND
     1     1     2  am
     2     1     6   1
     3     1     9   1
     4     2     3  am
     5     2     7   2
     6     3     4  am
     7     4     5   1
     8     4     8   2
     9     5     6   2
    10     9    10   1
    11     9    15   1
    12    10    11   1
    13    10    12   1
    14    12    13   1
    15    12    14   1
    16    13    15   1
    17    13    16   1
    18    16    17   1
    19    17    18   1
    20    18    19  ar
    21    18    20  ar
    22    18    21  ar
    23     3    22   1
    24     5    23   1
    25     6    24   1
    26     9    25   1
    27    10    26   1
    28    11    27   1
    29    12    28   1
    30    13    29   1
    31    14    30   1
    32    16    31   1
    33    16    32   1
@<TRIPOS>SUBSTRUCTURE
     1  U5P      2

