@<TRIPOS>MOLECULE
3dxg_ligand_042
    32    33
SMALL
GAST_HUCK
****
This file was generated by PARSER (from files_GN.cpp)

@<TRIPOS>ATOM
      1 N1         34.0778   -9.1692   13.3785 N.am        1 U5P      -0.1592
      2 C2         34.2816   -9.1851   14.7181 C.2         1 U5P       0.3328
      3 N3         33.7965  -10.1763   15.4566 N.am        1 U5P      -0.1865
      4 C4         33.0933  -11.1695   14.9177 C.2         1 U5P       0.1822
      5 C5         32.8309  -11.1711   13.5834 C.2         1 U5P       0.0062
      6 C6         33.3226  -10.1697   12.8307 C.2         1 U5P       0.0591
      7 O2         34.9173   -8.3267   15.3172 O.2         1 U5P      -0.3815
      8 O4         32.6868  -12.0648   15.6388 O.2         1 U5P      -0.4124
      9 C1'        34.6234   -8.1287   12.5186 C.3         1 U5P       0.2059
     10 C2'        33.8804   -6.7847   12.6337 C.3         1 U5P       0.1387
     11 O2'        32.6273   -6.7742   11.9518 O.3         1 U5P      -0.3836
     12 C3'        34.9246   -5.7870   12.1048 C.3         1 U5P       0.1149
     13 C4'        36.2752   -6.4764   12.4415 C.3         1 U5P       0.1182
     14 O3'        34.8149   -5.5739   10.6939 O.3         1 U5P      -0.3864
     15 O4'        35.9889   -7.8285   12.8346 O.3         1 U5P      -0.3363
     16 C5'        37.1015   -5.7718   13.5626 C.3         1 U5P       0.1072
     17 O5'        38.1681   -4.9305   13.0723 O.3         1 U5P      -0.2734
     18 P          37.8191   -3.5056   12.5539 P.3         1 U5P       0.2008
     19 O1P        39.0504   -2.9072   12.1071 O.co2       1 U5P      -0.5537
     20 O2P        37.2903   -2.6703   13.6002 O.co2       1 U5P      -0.5537
     21 O3P        36.9479   -3.4985   11.4070 O.co2       1 U5P      -0.5537
     22 H1         33.9633  -10.1826   16.4159 H           1 U5P       0.2259
     23 H2         32.2844  -11.8873   13.1694 H           1 U5P       0.0258
     24 H3         33.1097  -10.1674   11.8591 H           1 U5P       0.1178
     25 H4         34.6217   -8.4382   11.4633 H           1 U5P       0.0997
     26 H5         33.6818   -6.5605   13.6876 H           1 U5P       0.0676
     27 H6         32.8146   -6.7168   10.9873 H           1 U5P       0.2101
     28 H7         34.7996   -4.8192   12.5971 H           1 U5P       0.0648
     29 H8         36.8995   -6.5325   11.5460 H           1 U5P       0.0650
     30 H9         34.0456   -4.9761   10.5791 H           1 U5P       0.2100
     31 H10        37.6165   -6.5392   14.1459 H           1 U5P       0.0639
     32 H11        36.4597   -5.2559   14.2826 H           1 U5P       0.0639
@<TRIPOS>BOND
     1     1     2  am
     2     1     6   1
     3     1     9   1
     4     2     3  am
     5     2     7   2
     6     3     4  am
     7     4     5   1
     8     4     8   2
     9     5     6   2
    10     9    10   1
    11     9    15   1
    12    10    11   1
    13    10    12   1
    14    12    13   1
    15    12    14   1
    16    13    15   1
    17    13    16   1
    18    16    17   1
    19    17    18   1
    20    18    19  ar
    21    18    20  ar
    22    18    21  ar
    23     3    22   1
    24     5    23   1
    25     6    24   1
    26     9    25   1
    27    10    26   1
    28    11    27   1
    29    12    28   1
    30    13    29   1
    31    14    30   1
    32    16    31   1
    33    16    32   1
@<TRIPOS>SUBSTRUCTURE
     1  U5P      2

