@<TRIPOS>MOLECULE
3dxg_ligand_065
    32    33
SMALL
GAST_HUCK
****
This file was generated by PARSER (from files_GN.cpp)

@<TRIPOS>ATOM
      1 N1         43.9412    3.9901   11.9499 N.am        1 U5P      -0.1592
      2 C2         45.0864    3.2697   12.0720 C.2         1 U5P       0.3328
      3 N3         46.2554    3.8917   12.1733 N.am        1 U5P      -0.1865
      4 C4         46.3535    5.2124   12.1744 C.2         1 U5P       0.1822
      5 C5         45.2328    5.9797   12.0966 C.2         1 U5P       0.0062
      6 C6         44.0419    5.3555   12.0048 C.2         1 U5P       0.0591
      7 O2         45.1405    2.0517   12.1206 O.2         1 U5P      -0.3815
      8 O4         47.4617    5.7285   12.2524 O.2         1 U5P      -0.4124
      9 C1'        42.6194    3.3871   11.8348 C.3         1 U5P       0.2059
     10 C2'        41.7287    3.9510   10.6896 C.3         1 U5P       0.1387
     11 O2'        40.9328    5.0475   11.1425 O.3         1 U5P      -0.3836
     12 C3'        40.8847    2.7599   10.2087 C.3         1 U5P       0.1149
     13 C4'        41.3048    1.6098   11.1448 C.3         1 U5P       0.1182
     14 O3'        39.4752    2.9890   10.2587 O.3         1 U5P      -0.3864
     15 O4'        42.6208    1.9698   11.5724 O.3         1 U5P      -0.3363
     16 C5'        41.2949    0.2133   10.4632 C.3         1 U5P       0.1072
     17 O5'        41.6671   -0.7892   11.4314 O.3         1 U5P      -0.2734
     18 P          43.0906   -1.3959   11.3603 P.3         1 U5P       0.2008
     19 O1P        43.5108   -1.8037   12.6746 O.co2       1 U5P      -0.5537
     20 O2P        44.0830   -0.4819   10.8625 O.co2       1 U5P      -0.5537
     21 O3P        43.0673   -2.5767   10.5384 O.co2       1 U5P      -0.5537
     22 H1         47.0664    3.3558   12.2539 H           1 U5P       0.2259
     23 H2         45.2833    6.9729   12.1036 H           1 U5P       0.0258
     24 H3         43.2326    5.9293   11.9669 H           1 U5P       0.1178
     25 H4         42.1129    3.5341   12.7964 H           1 U5P       0.0997
     26 H5         42.3595    4.3022    9.8675 H           1 U5P       0.0676
     27 H6         40.4300    5.3413   10.3576 H           1 U5P       0.2101
     28 H7         41.1546    2.5280    9.1771 H           1 U5P       0.0648
     29 H8         40.6561    1.5680   12.0287 H           1 U5P       0.0650
     30 H9         39.0658    2.1218   10.4395 H           1 U5P       0.2100
     31 H10        41.9114    0.2180    9.5576 H           1 U5P       0.0639
     32 H11        40.2636    0.0105   10.1594 H           1 U5P       0.0639
@<TRIPOS>BOND
     1     1     2  am
     2     1     6   1
     3     1     9   1
     4     2     3  am
     5     2     7   2
     6     3     4  am
     7     4     5   1
     8     4     8   2
     9     5     6   2
    10     9    10   1
    11     9    15   1
    12    10    11   1
    13    10    12   1
    14    12    13   1
    15    12    14   1
    16    13    15   1
    17    13    16   1
    18    16    17   1
    19    17    18   1
    20    18    19  ar
    21    18    20  ar
    22    18    21  ar
    23     3    22   1
    24     5    23   1
    25     6    24   1
    26     9    25   1
    27    10    26   1
    28    11    27   1
    29    12    28   1
    30    13    29   1
    31    14    30   1
    32    16    31   1
    33    16    32   1
@<TRIPOS>SUBSTRUCTURE
     1  U5P      2

