@<TRIPOS>MOLECULE
3dxg_ligand_003
    32    33
SMALL
GAST_HUCK
****
This file was generated by PARSER (from files_GN.cpp)

@<TRIPOS>ATOM
      1 N1         40.8056    6.0047   10.5404 N.am        1 U5P      -0.1592
      2 C2         41.5745    7.0489   10.1453 C.2         1 U5P       0.3328
      3 N3         42.5947    6.8705    9.2988 N.am        1 U5P      -0.1865
      4 C4         42.8759    5.6681    8.8069 C.2         1 U5P       0.1822
      5 C5         42.1450    4.5849    9.1849 C.2         1 U5P       0.0062
      6 C6         41.1270    4.7645   10.0492 C.2         1 U5P       0.0591
      7 O2         41.3520    8.2064   10.4778 O.2         1 U5P      -0.3815
      8 O4         43.8013    5.5383    8.0143 O.2         1 U5P      -0.4124
      9 C1'        39.6155    6.2262   11.3586 C.3         1 U5P       0.2059
     10 C2'        38.8961    5.0221   12.0250 C.3         1 U5P       0.1387
     11 O2'        38.0130    4.3557   11.1302 O.3         1 U5P      -0.3836
     12 C3'        38.2010    5.6322   13.2572 C.3         1 U5P       0.1149
     13 C4'        38.6715    7.1009   13.2713 C.3         1 U5P       0.1182
     14 O3'        36.7802    5.5927   13.1823 O.3         1 U5P      -0.3864
     15 O4'        39.8732    7.0919   12.4883 O.3         1 U5P      -0.3363
     16 C5'        38.8679    7.6909   14.6904 C.3         1 U5P       0.1072
     17 O5'        38.9255    9.1394   14.6140 O.3         1 U5P      -0.2734
     18 P          38.7544    9.9112   15.9633 P.3         1 U5P       0.2008
     19 O1P        39.5853    9.3890   17.0159 O.co2       1 U5P      -0.5537
     20 O2P        37.3577    9.8562   16.3284 O.co2       1 U5P      -0.5537
     21 O3P        39.0937   11.3020   15.7649 O.co2       1 U5P      -0.5537
     22 H1         43.1297    7.6279    9.0153 H           1 U5P       0.2259
     23 H2         42.3178    3.6827    8.7944 H           1 U5P       0.0258
     24 H3         40.5978    3.9558   10.2914 H           1 U5P       0.1178
     25 H4         38.8964    6.7323   10.7017 H           1 U5P       0.0997
     26 H5         39.6343    4.3029   12.3697 H           1 U5P       0.0676
     27 H6         37.4239    3.8207   11.7054 H           1 U5P       0.2101
     28 H7         38.5317    5.0960   14.1504 H           1 U5P       0.0648
     29 H8         37.9278    7.7228   12.7529 H           1 U5P       0.0650
     30 H9         36.4649    5.4371   14.1101 H           1 U5P       0.2100
     31 H10        39.8103    7.3001   15.1104 H           1 U5P       0.0639
     32 H11        38.0257    7.3354   15.3154 H           1 U5P       0.0639
@<TRIPOS>BOND
     1     1     2  am
     2     1     6   1
     3     1     9   1
     4     2     3  am
     5     2     7   2
     6     3     4  am
     7     4     5   1
     8     4     8   2
     9     5     6   2
    10     9    10   1
    11     9    15   1
    12    10    11   1
    13    10    12   1
    14    12    13   1
    15    12    14   1
    16    13    15   1
    17    13    16   1
    18    16    17   1
    19    17    18   1
    20    18    19  ar
    21    18    20  ar
    22    18    21  ar
    23     3    22   1
    24     5    23   1
    25     6    24   1
    26     9    25   1
    27    10    26   1
    28    11    27   1
    29    12    28   1
    30    13    29   1
    31    14    30   1
    32    16    31   1
    33    16    32   1
@<TRIPOS>SUBSTRUCTURE
     1  U5P      2

