@<TRIPOS>MOLECULE
3dxg_ligand_050
    32    33
SMALL
GAST_HUCK
****
This file was generated by PARSER (from files_GN.cpp)

@<TRIPOS>ATOM
      1 N1         41.1467    5.7744   10.4459 N.am        1 U5P      -0.1592
      2 C2         41.1090    6.9514    9.7840 C.2         1 U5P       0.3328
      3 N3         41.5909    7.0392    8.5438 N.am        1 U5P      -0.1865
      4 C4         42.1228    5.9869    7.9288 C.2         1 U5P       0.1822
      5 C5         42.1694    4.7789    8.5527 C.2         1 U5P       0.0062
      6 C6         41.6636    4.6841    9.7990 C.2         1 U5P       0.0591
      7 O2         40.6326    7.9754   10.2549 O.2         1 U5P      -0.3815
      8 O4         42.5609    6.1200    6.7941 O.2         1 U5P      -0.4124
      9 C1'        40.6684    5.6420   11.8110 C.3         1 U5P       0.2059
     10 C2'        39.3053    4.9256   11.9208 C.3         1 U5P       0.1387
     11 O2'        38.1881    5.7851   11.6878 O.3         1 U5P      -0.3836
     12 C3'        39.3531    4.3652   13.3499 C.3         1 U5P       0.1149
     13 C4'        40.8581    4.0417   13.5253 C.3         1 U5P       0.1182
     14 O3'        38.9132    5.3274   14.3128 O.3         1 U5P      -0.3864
     15 O4'        41.5879    4.9019   12.6312 O.3         1 U5P      -0.3363
     16 C5'        41.2096    2.5556   13.2335 C.3         1 U5P       0.1072
     17 O5'        42.6301    2.3369   13.3694 O.3         1 U5P      -0.2734
     18 P          43.1436    0.8818   13.1503 P.3         1 U5P       0.2008
     19 O1P        42.1218   -0.1359   13.0680 O.co2       1 U5P      -0.5537
     20 O2P        44.0675    0.5412   14.2020 O.co2       1 U5P      -0.5537
     21 O3P        43.8665    0.8509   11.8996 O.co2       1 U5P      -0.5537
     22 H1         41.5570    7.8896    8.0769 H           1 U5P       0.2259
     23 H2         42.5440    3.9755    8.0981 H           1 U5P       0.0258
     24 H3         41.6849    3.7942   10.2444 H           1 U5P       0.1178
     25 H4         40.5772    6.6195   12.2958 H           1 U5P       0.0997
     26 H5         39.2523    4.0950   11.2090 H           1 U5P       0.0676
     27 H6         38.3310    6.1969   10.8132 H           1 U5P       0.2101
     28 H7         38.7189    3.4801   13.4473 H           1 U5P       0.0648
     29 H8         41.1796    4.2728   14.5465 H           1 U5P       0.0650
     30 H9         39.5466    6.0731   14.2603 H           1 U5P       0.2100
     31 H10        40.9060    2.3169   12.2081 H           1 U5P       0.0639
     32 H11        40.6387    1.9235   13.9233 H           1 U5P       0.0639
@<TRIPOS>BOND
     1     1     2  am
     2     1     6   1
     3     1     9   1
     4     2     3  am
     5     2     7   2
     6     3     4  am
     7     4     5   1
     8     4     8   2
     9     5     6   2
    10     9    10   1
    11     9    15   1
    12    10    11   1
    13    10    12   1
    14    12    13   1
    15    12    14   1
    16    13    15   1
    17    13    16   1
    18    16    17   1
    19    17    18   1
    20    18    19  ar
    21    18    20  ar
    22    18    21  ar
    23     3    22   1
    24     5    23   1
    25     6    24   1
    26     9    25   1
    27    10    26   1
    28    11    27   1
    29    12    28   1
    30    13    29   1
    31    14    30   1
    32    16    31   1
    33    16    32   1
@<TRIPOS>SUBSTRUCTURE
     1  U5P      2

