@<TRIPOS>MOLECULE
3dxg_ligand_029
    32    33
SMALL
GAST_HUCK
****
This file was generated by PARSER (from files_GN.cpp)

@<TRIPOS>ATOM
      1 N1         35.7462   -9.9955   13.7292 N.am        1 U5P      -0.1592
      2 C2         36.2176   -9.9015   14.9915 C.2         1 U5P       0.3328
      3 N3         37.1706  -10.7312   15.4197 N.am        1 U5P      -0.1865
      4 C4         37.6840  -11.6703   14.6302 C.2         1 U5P       0.1822
      5 C5         37.2626  -11.7867   13.3414 C.2         1 U5P       0.0062
      6 C6         36.3063  -10.9437   12.9065 C.2         1 U5P       0.0591
      7 O2         35.8075   -9.0802   15.8013 O.2         1 U5P      -0.3815
      8 O4         38.5428  -12.4154   15.0796 O.2         1 U5P      -0.4124
      9 C1'        34.6594   -9.1352   13.2677 C.3         1 U5P       0.2059
     10 C2'        35.0903   -7.6722   13.0074 C.3         1 U5P       0.1387
     11 O2'        35.0631   -6.8537   14.1762 O.3         1 U5P      -0.3836
     12 C3'        34.0839   -7.2118   11.9379 C.3         1 U5P       0.1149
     13 C4'        33.8484   -8.5123   11.1357 C.3         1 U5P       0.1182
     14 O3'        32.8588   -6.7630   12.5239 O.3         1 U5P      -0.3864
     15 O4'        34.0060   -9.5980   12.0657 O.3         1 U5P      -0.3363
     16 C5'        34.8126   -8.6971    9.9240 C.3         1 U5P       0.1072
     17 O5'        35.0495  -10.0600    9.5152 O.3         1 U5P      -0.2734
     18 P          33.8881  -10.8766    8.8639 P.3         1 U5P       0.2008
     19 O1P        33.5669  -10.3714    7.5516 O.co2       1 U5P      -0.5537
     20 O2P        32.6972  -10.9774    9.6700 O.co2       1 U5P      -0.5537
     21 O3P        34.3803  -12.2203    8.6842 O.co2       1 U5P      -0.5537
     22 H1         37.4950  -10.6527   16.3319 H           1 U5P       0.2259
     23 H2         37.6550  -12.4696   12.7278 H           1 U5P       0.0258
     24 H3         36.0228  -11.0302   11.9587 H           1 U5P       0.1178
     25 H4         33.8619   -9.1366   14.0200 H           1 U5P       0.0997
     26 H5         36.1025   -7.6514   12.5909 H           1 U5P       0.0676
     27 H6         35.3301   -5.9572   13.8715 H           1 U5P       0.2101
     28 H7         34.4928   -6.4060   11.3220 H           1 U5P       0.0648
     29 H8         32.8218   -8.5310   10.7592 H           1 U5P       0.0650
     30 H9         33.0921   -5.9564   13.0306 H           1 U5P       0.2100
     31 H10        35.7959   -8.3088   10.1972 H           1 U5P       0.0639
     32 H11        34.4662   -8.0933    9.0791 H           1 U5P       0.0639
@<TRIPOS>BOND
     1     1     2  am
     2     1     6   1
     3     1     9   1
     4     2     3  am
     5     2     7   2
     6     3     4  am
     7     4     5   1
     8     4     8   2
     9     5     6   2
    10     9    10   1
    11     9    15   1
    12    10    11   1
    13    10    12   1
    14    12    13   1
    15    12    14   1
    16    13    15   1
    17    13    16   1
    18    16    17   1
    19    17    18   1
    20    18    19  ar
    21    18    20  ar
    22    18    21  ar
    23     3    22   1
    24     5    23   1
    25     6    24   1
    26     9    25   1
    27    10    26   1
    28    11    27   1
    29    12    28   1
    30    13    29   1
    31    14    30   1
    32    16    31   1
    33    16    32   1
@<TRIPOS>SUBSTRUCTURE
     1  U5P      2

