@<TRIPOS>MOLECULE
3dxg_ligand_039
    32    33
SMALL
GAST_HUCK
****
This file was generated by PARSER (from files_GN.cpp)

@<TRIPOS>ATOM
      1 N1         38.1151    1.2111   20.5195 N.am        1 U5P      -0.1592
      2 C2         37.1021    0.9638   21.3810 C.2         1 U5P       0.3328
      3 N3         36.1230    1.8548   21.5341 N.am        1 U5P      -0.1865
      4 C4         36.1123    3.0018   20.8569 C.2         1 U5P       0.1822
      5 C5         37.1087    3.2883   19.9789 C.2         1 U5P       0.0062
      6 C6         38.1037    2.3918   19.8275 C.2         1 U5P       0.0591
      7 O2         37.0139   -0.0645   22.0378 O.2         1 U5P      -0.3815
      8 O4         35.1847    3.7795   21.0252 O.2         1 U5P      -0.4124
      9 C1'        39.1790    0.2508   20.2679 C.3         1 U5P       0.2059
     10 C2'        39.1485   -0.3186   18.8343 C.3         1 U5P       0.1387
     11 O2'        38.1574   -1.3275   18.6597 O.3         1 U5P      -0.3836
     12 C3'        40.5781   -0.8473   18.6712 C.3         1 U5P       0.1149
     13 C4'        41.4024    0.1253   19.5593 C.3         1 U5P       0.1182
     14 O3'        40.6955   -2.2026   19.1219 O.3         1 U5P      -0.3864
     15 O4'        40.4883    0.8223   20.4285 O.3         1 U5P      -0.3363
     16 C5'        42.2062    1.1707   18.7346 C.3         1 U5P       0.1072
     17 O5'        42.9572    2.1239   19.5148 O.3         1 U5P      -0.2734
     18 P          44.2528    1.6407   20.2383 P.3         1 U5P       0.2008
     19 O1P        45.0259    2.8062   20.5786 O.co2       1 U5P      -0.5537
     20 O2P        45.0902    0.8001   19.4217 O.co2       1 U5P      -0.5537
     21 O3P        43.9490    0.9729   21.4775 O.co2       1 U5P      -0.5537
     22 H1         35.3950    1.6588   22.1456 H           1 U5P       0.2259
     23 H2         37.1052    4.1316   19.4534 H           1 U5P       0.0258
     24 H3         38.8291    2.6066   19.1810 H           1 U5P       0.1178
     25 H4         39.1286   -0.5879   20.9712 H           1 U5P       0.0997
     26 H5         38.9678    0.4750   18.1048 H           1 U5P       0.0676
     27 H6         37.2984   -0.8961   18.8544 H           1 U5P       0.2101
     28 H7         40.8758   -0.8257   17.6197 H           1 U5P       0.0648
     29 H8         42.0950   -0.4554   20.1747 H           1 U5P       0.0650
     30 H9         40.4034   -2.2035   20.0597 H           1 U5P       0.2100
     31 H10        41.4904    1.7573   18.1542 H           1 U5P       0.0639
     32 H11        42.8531    0.6653   18.0096 H           1 U5P       0.0639
@<TRIPOS>BOND
     1     1     2  am
     2     1     6   1
     3     1     9   1
     4     2     3  am
     5     2     7   2
     6     3     4  am
     7     4     5   1
     8     4     8   2
     9     5     6   2
    10     9    10   1
    11     9    15   1
    12    10    11   1
    13    10    12   1
    14    12    13   1
    15    12    14   1
    16    13    15   1
    17    13    16   1
    18    16    17   1
    19    17    18   1
    20    18    19  ar
    21    18    20  ar
    22    18    21  ar
    23     3    22   1
    24     5    23   1
    25     6    24   1
    26     9    25   1
    27    10    26   1
    28    11    27   1
    29    12    28   1
    30    13    29   1
    31    14    30   1
    32    16    31   1
    33    16    32   1
@<TRIPOS>SUBSTRUCTURE
     1  U5P      2

