@<TRIPOS>MOLECULE
3dxg_ligand_009
    32    33
SMALL
GAST_HUCK
****
This file was generated by PARSER (from files_GN.cpp)

@<TRIPOS>ATOM
      1 N1         38.4134    1.0351   11.8521 N.am        1 U5P      -0.1592
      2 C2         37.7044    1.6514   10.8805 C.2         1 U5P       0.3328
      3 N3         36.6076    1.0749   10.3879 N.am        1 U5P      -0.1865
      4 C4         36.1782   -0.1078   10.8192 C.2         1 U5P       0.1822
      5 C5         36.8664   -0.7651   11.7922 C.2         1 U5P       0.0062
      6 C6         37.9726   -0.1856   12.2951 C.2         1 U5P       0.0591
      7 O2         38.0126    2.7184   10.3685 O.2         1 U5P      -0.3815
      8 O4         35.1782   -0.5958   10.3094 O.2         1 U5P      -0.4124
      9 C1'        39.6582    1.5650   12.3884 C.3         1 U5P       0.2059
     10 C2'        40.8962    0.9312   11.7177 C.3         1 U5P       0.1387
     11 O2'        41.2254   -0.3432   12.2603 O.3         1 U5P      -0.3836
     12 C3'        41.9807    1.9892   11.9554 C.3         1 U5P       0.1149
     13 C4'        41.1769    3.3085   11.8942 C.3         1 U5P       0.1182
     14 O3'        42.5821    1.8390   13.2416 O.3         1 U5P      -0.3864
     15 O4'        39.8226    2.9896   12.2802 O.3         1 U5P      -0.3363
     16 C5'        41.1491    4.0121   10.5158 C.3         1 U5P       0.1072
     17 O5'        42.4892    4.1992   10.0109 O.3         1 U5P      -0.2734
     18 P          42.7590    5.4316    9.0972 P.3         1 U5P       0.2008
     19 O1P        43.4808    6.3992    9.8947 O.co2       1 U5P      -0.5537
     20 O2P        41.6105    6.0734    8.4930 O.co2       1 U5P      -0.5537
     21 O3P        43.6646    5.0285    8.0483 O.co2       1 U5P      -0.5537
     22 H1         36.1201    1.5161    9.6761 H           1 U5P       0.2259
     23 H2         36.5623   -1.6514   12.1263 H           1 U5P       0.0258
     24 H3         38.4706   -0.6717   13.0076 H           1 U5P       0.1178
     25 H4         39.6993    1.3715   13.4670 H           1 U5P       0.0997
     26 H5         40.7245    0.8243   10.6437 H           1 U5P       0.0676
     27 H6         41.9800   -0.6676   11.7254 H           1 U5P       0.2101
     28 H7         42.7631    1.9311   11.1996 H           1 U5P       0.0648
     29 H8         41.5799    4.0188   12.6234 H           1 U5P       0.0650
     30 H9         43.0983    1.0075   13.1905 H           1 U5P       0.2100
     31 H10        40.6064    4.9570   10.6527 H           1 U5P       0.0639
     32 H11        40.6001    3.4015    9.7999 H           1 U5P       0.0639
@<TRIPOS>BOND
     1     1     2  am
     2     1     6   1
     3     1     9   1
     4     2     3  am
     5     2     7   2
     6     3     4  am
     7     4     5   1
     8     4     8   2
     9     5     6   2
    10     9    10   1
    11     9    15   1
    12    10    11   1
    13    10    12   1
    14    12    13   1
    15    12    14   1
    16    13    15   1
    17    13    16   1
    18    16    17   1
    19    17    18   1
    20    18    19  ar
    21    18    20  ar
    22    18    21  ar
    23     3    22   1
    24     5    23   1
    25     6    24   1
    26     9    25   1
    27    10    26   1
    28    11    27   1
    29    12    28   1
    30    13    29   1
    31    14    30   1
    32    16    31   1
    33    16    32   1
@<TRIPOS>SUBSTRUCTURE
     1  U5P      2

