@<TRIPOS>MOLECULE
3dxg_ligand_047
    32    33
SMALL
GAST_HUCK
****
This file was generated by PARSER (from files_GN.cpp)

@<TRIPOS>ATOM
      1 N1         41.8224    5.5890   11.9674 N.am        1 U5P      -0.1592
      2 C2         41.2514    4.8798   10.9645 C.2         1 U5P       0.3328
      3 N3         41.9152    4.6697    9.8282 N.am        1 U5P      -0.1865
      4 C4         43.1338    5.1581    9.6303 C.2         1 U5P       0.1822
      5 C5         43.7334    5.9016   10.5948 C.2         1 U5P       0.0062
      6 C6         43.0681    6.1118   11.7478 C.2         1 U5P       0.0591
      7 O2         40.1374    4.3834   11.0194 O.2         1 U5P      -0.3815
      8 O4         43.7155    4.8901    8.5885 O.2         1 U5P      -0.4124
      9 C1'        41.1703    5.8682   13.2441 C.3         1 U5P       0.2059
     10 C2'        40.4694    7.2557   13.2608 C.3         1 U5P       0.1387
     11 O2'        40.6791    7.9252   14.5050 O.3         1 U5P      -0.3836
     12 C3'        38.9942    6.8776   13.0826 C.3         1 U5P       0.1149
     13 C4'        38.9126    5.5313   13.8394 C.3         1 U5P       0.1182
     14 O3'        38.0856    7.8629   13.5775 O.3         1 U5P      -0.3864
     15 O4'        40.1830    4.8926   13.6369 O.3         1 U5P      -0.3363
     16 C5'        37.7612    4.5977   13.3760 C.3         1 U5P       0.1072
     17 O5'        36.5659    5.3240   13.0252 O.3         1 U5P      -0.2734
     18 P          35.3696    5.3155   14.0148 P.3         1 U5P       0.2008
     19 O1P        34.3875    6.2309   13.4915 O.co2       1 U5P      -0.5537
     20 O2P        35.7355    5.7488   15.3404 O.co2       1 U5P      -0.5537
     21 O3P        34.7597    4.0111   14.0628 O.co2       1 U5P      -0.5537
     22 H1         41.5052    4.1323    9.1330 H           1 U5P       0.2259
     23 H2         44.6439    6.2792   10.4626 H           1 U5P       0.0258
     24 H3         43.5199    6.6497   12.4513 H           1 U5P       0.1178
     25 H4         41.9190    5.8396   14.0401 H           1 U5P       0.0997
     26 H5         40.8059    7.9093   12.4512 H           1 U5P       0.0676
     27 H6         41.6386    8.1206   14.5326 H           1 U5P       0.2101
     28 H7         38.7871    6.7266   12.0197 H           1 U5P       0.0648
     29 H8         38.7863    5.7361   14.9109 H           1 U5P       0.0650
     30 H9         38.2913    7.9595   14.5297 H           1 U5P       0.2100
     31 H10        37.6190    3.7995   14.1172 H           1 U5P       0.0639
     32 H11        38.0715    4.0981   12.4573 H           1 U5P       0.0639
@<TRIPOS>BOND
     1     1     2  am
     2     1     6   1
     3     1     9   1
     4     2     3  am
     5     2     7   2
     6     3     4  am
     7     4     5   1
     8     4     8   2
     9     5     6   2
    10     9    10   1
    11     9    15   1
    12    10    11   1
    13    10    12   1
    14    12    13   1
    15    12    14   1
    16    13    15   1
    17    13    16   1
    18    16    17   1
    19    17    18   1
    20    18    19  ar
    21    18    20  ar
    22    18    21  ar
    23     3    22   1
    24     5    23   1
    25     6    24   1
    26     9    25   1
    27    10    26   1
    28    11    27   1
    29    12    28   1
    30    13    29   1
    31    14    30   1
    32    16    31   1
    33    16    32   1
@<TRIPOS>SUBSTRUCTURE
     1  U5P      2

