@<TRIPOS>MOLECULE
3dxg_ligand_026
    32    33
SMALL
GAST_HUCK
****
This file was generated by PARSER (from files_GN.cpp)

@<TRIPOS>ATOM
      1 N1         37.2019    3.5283   20.4642 N.am        1 U5P      -0.1592
      2 C2         37.8255    2.4927   19.8625 C.2         1 U5P       0.3328
      3 N3         37.7783    1.2752   20.4013 N.am        1 U5P      -0.1865
      4 C4         37.1248    1.0356   21.5367 C.2         1 U5P       0.1822
      5 C5         36.4842    2.0500   22.1781 C.2         1 U5P       0.0062
      6 C6         36.5356    3.2825   21.6349 C.2         1 U5P       0.0591
      7 O2         38.4698    2.6017   18.8301 O.2         1 U5P      -0.3815
      8 O4         37.1438   -0.0942   22.0026 O.2         1 U5P      -0.4124
      9 C1'        37.2731    4.8891   19.9442 C.3         1 U5P       0.2059
     10 C2'        38.6588    5.5346   20.1394 C.3         1 U5P       0.1387
     11 O2'        38.8830    5.9399   21.4889 O.3         1 U5P      -0.3836
     12 C3'        38.6159    6.6898   19.1312 C.3         1 U5P       0.1149
     13 C4'        37.7135    6.1258   17.9993 C.3         1 U5P       0.1182
     14 O3'        38.0319    7.8628   19.7011 O.3         1 U5P      -0.3864
     15 O4'        37.0091    4.9876   18.5334 O.3         1 U5P      -0.3363
     16 C5'        38.4974    5.6866   16.7296 C.3         1 U5P       0.1072
     17 O5'        37.6606    5.5431   15.5543 O.3         1 U5P      -0.2734
     18 P          37.5925    6.7512   14.5589 P.3         1 U5P       0.2008
     19 O1P        36.8867    7.8864   15.1001 O.co2       1 U5P      -0.5537
     20 O2P        36.9141    6.3449   13.3493 O.co2       1 U5P      -0.5537
     21 O3P        38.9199    7.1545   14.1604 O.co2       1 U5P      -0.5537
     22 H1         38.2461    0.5458   19.9623 H           1 U5P       0.2259
     23 H2         36.0084    1.8970   23.0371 H           1 U5P       0.0258
     24 H3         36.0921    4.0239   22.1276 H           1 U5P       0.1178
     25 H4         36.5331    5.5341   20.4326 H           1 U5P       0.0997
     26 H5         39.4575    4.8427   19.8541 H           1 U5P       0.0676
     27 H6         39.7331    6.4278   21.4764 H           1 U5P       0.2101
     28 H7         39.6215    6.9424   18.7892 H           1 U5P       0.0648
     29 H8         36.9744    6.8766   17.7086 H           1 U5P       0.0650
     30 H9         38.6498    8.1511   20.4053 H           1 U5P       0.2100
     31 H10        38.9138    4.6951   16.9215 H           1 U5P       0.0639
     32 H11        39.3579    6.3480   16.5541 H           1 U5P       0.0639
@<TRIPOS>BOND
     1     1     2  am
     2     1     6   1
     3     1     9   1
     4     2     3  am
     5     2     7   2
     6     3     4  am
     7     4     5   1
     8     4     8   2
     9     5     6   2
    10     9    10   1
    11     9    15   1
    12    10    11   1
    13    10    12   1
    14    12    13   1
    15    12    14   1
    16    13    15   1
    17    13    16   1
    18    16    17   1
    19    17    18   1
    20    18    19  ar
    21    18    20  ar
    22    18    21  ar
    23     3    22   1
    24     5    23   1
    25     6    24   1
    26     9    25   1
    27    10    26   1
    28    11    27   1
    29    12    28   1
    30    13    29   1
    31    14    30   1
    32    16    31   1
    33    16    32   1
@<TRIPOS>SUBSTRUCTURE
     1  U5P      2

