@<TRIPOS>MOLECULE
3dxg_ligand_024
    32    33
SMALL
GAST_HUCK
****
This file was generated by PARSER (from files_GN.cpp)

@<TRIPOS>ATOM
      1 N1         38.0450    5.3323   12.6743 N.am        1 U5P      -0.1592
      2 C2         37.6202    4.1545   12.1468 C.2         1 U5P       0.3328
      3 N3         36.6413    3.4715   12.7471 N.am        1 U5P      -0.1865
      4 C4         36.0581    3.9085   13.8648 C.2         1 U5P       0.1822
      5 C5         36.4560    5.0808   14.4230 C.2         1 U5P       0.0062
      6 C6         37.4331    5.7853   13.8097 C.2         1 U5P       0.0591
      7 O2         38.0368    3.6490   11.1183 O.2         1 U5P      -0.3815
      8 O4         35.1398    3.2649   14.3402 O.2         1 U5P      -0.4124
      9 C1'        39.0813    6.1658   12.0719 C.3         1 U5P       0.2059
     10 C2'        40.3228    6.4025   12.9644 C.3         1 U5P       0.1387
     11 O2'        40.1283    7.3420   14.0156 O.3         1 U5P      -0.3836
     12 C3'        41.3792    6.8761   11.9525 C.3         1 U5P       0.1149
     13 C4'        40.9453    6.1841   10.6398 C.3         1 U5P       0.1182
     14 O3'        41.3327    8.3058   11.8006 O.3         1 U5P      -0.3864
     15 O4'        39.6436    5.6426   10.8659 O.3         1 U5P      -0.3363
     16 C5'        41.8778    5.0271   10.1979 C.3         1 U5P       0.1072
     17 O5'        43.1624    5.4936    9.7252 O.3         1 U5P      -0.2734
     18 P          43.2368    6.0659    8.2786 P.3         1 U5P       0.2008
     19 O1P        43.9627    7.3061    8.3513 O.co2       1 U5P      -0.5537
     20 O2P        41.9817    6.3098    7.6047 O.co2       1 U5P      -0.5537
     21 O3P        44.0185    5.1628    7.4503 O.co2       1 U5P      -0.5537
     22 H1         36.3305    2.6380   12.3529 H           1 U5P       0.2259
     23 H2         36.0333    5.4197   15.2581 H           1 U5P       0.0258
     24 H3         37.6820    6.6557   14.2089 H           1 U5P       0.1178
     25 H4         38.6289    7.1327   11.8157 H           1 U5P       0.0997
     26 H5         40.6403    5.4500   13.3960 H           1 U5P       0.0676
     27 H6         40.9939    7.4015   14.4670 H           1 U5P       0.2101
     28 H7         42.3898    6.5988   12.2926 H           1 U5P       0.0648
     29 H8         40.8536    6.9143    9.8443 H           1 U5P       0.0650
     30 H9         42.2005    8.5603   11.3862 H           1 U5P       0.2100
     31 H10        41.3844    4.3903    9.4544 H           1 U5P       0.0639
     32 H11        42.0817    4.3824   11.0615 H           1 U5P       0.0639
@<TRIPOS>BOND
     1     1     2  am
     2     1     6   1
     3     1     9   1
     4     2     3  am
     5     2     7   2
     6     3     4  am
     7     4     5   1
     8     4     8   2
     9     5     6   2
    10     9    10   1
    11     9    15   1
    12    10    11   1
    13    10    12   1
    14    12    13   1
    15    12    14   1
    16    13    15   1
    17    13    16   1
    18    16    17   1
    19    17    18   1
    20    18    19  ar
    21    18    20  ar
    22    18    21  ar
    23     3    22   1
    24     5    23   1
    25     6    24   1
    26     9    25   1
    27    10    26   1
    28    11    27   1
    29    12    28   1
    30    13    29   1
    31    14    30   1
    32    16    31   1
    33    16    32   1
@<TRIPOS>SUBSTRUCTURE
     1  U5P      2

