@<TRIPOS>MOLECULE
3dxg_ligand_025
    32    33
SMALL
GAST_HUCK
****
This file was generated by PARSER (from files_GN.cpp)

@<TRIPOS>ATOM
      1 N1         39.6928    4.0772   12.8187 N.am        1 U5P      -0.1592
      2 C2         39.0428    4.5958   11.7517 C.2         1 U5P       0.3328
      3 N3         39.3237    5.8215   11.3166 N.am        1 U5P      -0.1865
      4 C4         40.2637    6.5595   11.8982 C.2         1 U5P       0.1822
      5 C5         40.9583    6.0766   12.9650 C.2         1 U5P       0.0062
      6 C6         40.6666    4.8404   13.4093 C.2         1 U5P       0.0591
      7 O2         38.1586    4.0025   11.1517 O.2         1 U5P      -0.3815
      8 O4         40.4657    7.6881   11.4846 O.2         1 U5P      -0.4124
      9 C1'        39.3701    2.7764   13.3841 C.3         1 U5P       0.2059
     10 C2'        38.1616    2.8341   14.3362 C.3         1 U5P       0.1387
     11 O2'        38.4729    3.4231   15.5969 O.3         1 U5P      -0.3836
     12 C3'        37.7580    1.3602   14.4267 C.3         1 U5P       0.1149
     13 C4'        38.1632    0.8049   13.0295 C.3         1 U5P       0.1182
     14 O3'        38.4470    0.6840   15.4783 O.3         1 U5P      -0.3864
     15 O4'        39.0194    1.7822   12.4051 O.3         1 U5P      -0.3363
     16 C5'        36.9673    0.4704   12.0815 C.3         1 U5P       0.1072
     17 O5'        37.1715   -0.8230   11.4673 O.3         1 U5P      -0.2734
     18 P          35.8928   -1.6357   11.0983 P.3         1 U5P       0.2008
     19 O1P        35.2299   -2.0449   12.3153 O.co2       1 U5P      -0.5537
     20 O2P        36.2585   -2.8390   10.3994 O.co2       1 U5P      -0.5537
     21 O3P        34.9404   -0.9139   10.2854 O.co2       1 U5P      -0.5537
     22 H1         38.8233    6.1942   10.5708 H           1 U5P       0.2259
     23 H2         41.6620    6.6220   13.4144 H           1 U5P       0.0258
     24 H3         41.1803    4.4896   14.1895 H           1 U5P       0.1178
     25 H4         40.2362    2.3711   13.9264 H           1 U5P       0.0997
     26 H5         37.3498    3.4079   13.8753 H           1 U5P       0.0676
     27 H6         37.6410    3.3613   16.1124 H           1 U5P       0.2101
     28 H7         36.6936    1.2783   14.6433 H           1 U5P       0.0648
     29 H8         38.7689   -0.0962   13.1703 H           1 U5P       0.0650
     30 H9         39.4026    0.7635   15.2788 H           1 U5P       0.2100
     31 H10        36.8918    1.2143   11.2824 H           1 U5P       0.0639
     32 H11        36.0285    0.5130   12.6417 H           1 U5P       0.0639
@<TRIPOS>BOND
     1     1     2  am
     2     1     6   1
     3     1     9   1
     4     2     3  am
     5     2     7   2
     6     3     4  am
     7     4     5   1
     8     4     8   2
     9     5     6   2
    10     9    10   1
    11     9    15   1
    12    10    11   1
    13    10    12   1
    14    12    13   1
    15    12    14   1
    16    13    15   1
    17    13    16   1
    18    16    17   1
    19    17    18   1
    20    18    19  ar
    21    18    20  ar
    22    18    21  ar
    23     3    22   1
    24     5    23   1
    25     6    24   1
    26     9    25   1
    27    10    26   1
    28    11    27   1
    29    12    28   1
    30    13    29   1
    31    14    30   1
    32    16    31   1
    33    16    32   1
@<TRIPOS>SUBSTRUCTURE
     1  U5P      2

