@<TRIPOS>MOLECULE
3dxg_ligand_073
    32    33
SMALL
GAST_HUCK
****
This file was generated by PARSER (from files_GN.cpp)

@<TRIPOS>ATOM
      1 N1         41.8650    4.6057   14.0759 N.am        1 U5P      -0.1592
      2 C2         41.2357    4.1669   12.9567 C.2         1 U5P       0.3328
      3 N3         41.7501    3.1774   12.2347 N.am        1 U5P      -0.1865
      4 C4         42.8836    2.5636   12.5926 C.2         1 U5P       0.1822
      5 C5         43.5442    2.9587   13.7167 C.2         1 U5P       0.0062
      6 C6         43.0252    3.9728   14.4368 C.2         1 U5P       0.0591
      7 O2         40.1841    4.6514   12.5426 O.2         1 U5P      -0.3815
      8 O4         43.3075    1.6573   11.8936 O.2         1 U5P      -0.4124
      9 C1'        41.3646    5.7319   14.8469 C.3         1 U5P       0.2059
     10 C2'        41.4063    7.0694   14.0642 C.3         1 U5P       0.1387
     11 O2'        42.3236    7.9845   14.6662 O.3         1 U5P      -0.3836
     12 C3'        39.9526    7.5713   14.1441 C.3         1 U5P       0.1149
     13 C4'        39.3451    6.7874   15.3329 C.3         1 U5P       0.1182
     14 O3'        39.8571    8.9929   14.2543 O.3         1 U5P      -0.3864
     15 O4'        40.0066    5.5040   15.2635 O.3         1 U5P      -0.3363
     16 C5'        37.8004    6.5646   15.2734 C.3         1 U5P       0.1072
     17 O5'        36.9807    7.5063   16.0018 O.3         1 U5P      -0.2734
     18 P          36.9548    9.0057   15.5780 P.3         1 U5P       0.2008
     19 O1P        37.5789    9.3114   14.3148 O.co2       1 U5P      -0.5537
     20 O2P        37.5860    9.7860   16.6147 O.co2       1 U5P      -0.5537
     21 O3P        35.5829    9.4368   15.5262 O.co2       1 U5P      -0.5537
     22 H1         41.2696    2.8584   11.4454 H           1 U5P       0.2259
     23 H2         44.3805    2.5033   14.0026 H           1 U5P       0.0258
     24 H3         43.5221    4.2533   15.2624 H           1 U5P       0.1178
     25 H4         41.9333    5.8504   15.7807 H           1 U5P       0.0997
     26 H5         41.7038    6.9329   13.0216 H           1 U5P       0.0676
     27 H6         43.2166    7.6104   14.5022 H           1 U5P       0.2101
     28 H7         39.4409    7.2891   13.2185 H           1 U5P       0.0648
     29 H8         39.6032    7.2808   16.2751 H           1 U5P       0.0650
     30 H9         40.3608    9.2241   15.0705 H           1 U5P       0.2100
     31 H10        37.5959    5.6093   15.7615 H           1 U5P       0.0639
     32 H11        37.4671    6.4360   14.2356 H           1 U5P       0.0639
@<TRIPOS>BOND
     1     1     2  am
     2     1     6   1
     3     1     9   1
     4     2     3  am
     5     2     7   2
     6     3     4  am
     7     4     5   1
     8     4     8   2
     9     5     6   2
    10     9    10   1
    11     9    15   1
    12    10    11   1
    13    10    12   1
    14    12    13   1
    15    12    14   1
    16    13    15   1
    17    13    16   1
    18    16    17   1
    19    17    18   1
    20    18    19  ar
    21    18    20  ar
    22    18    21  ar
    23     3    22   1
    24     5    23   1
    25     6    24   1
    26     9    25   1
    27    10    26   1
    28    11    27   1
    29    12    28   1
    30    13    29   1
    31    14    30   1
    32    16    31   1
    33    16    32   1
@<TRIPOS>SUBSTRUCTURE
     1  U5P      2

