@<TRIPOS>MOLECULE
3e93_ligand_017
    70    75
SMALL
GAST_HUCK
****
This file was generated by PARSER (from files_GN.cpp)

@<TRIPOS>ATOM
      1 O25        40.9597   29.6025   36.0345 O.2         1 MOL      -0.3760
      2 C22        40.0141   29.5132   35.2587 C.2         1 MOL       0.2274
      3 N24        38.9845   28.7131   35.5316 N.am        1 MOL      -0.2370
      4 C26        38.8195   27.9397   36.6463 C.ar        1 MOL       0.0536
      5 C27        38.4546   26.5848   36.4797 C.ar        1 MOL      -0.0255
      6 C29        38.3434   25.7200   37.5926 C.ar        1 MOL       0.0259
      7 C32        38.5534   26.2404   38.8884 C.ar        1 MOL      -0.0595
      8 C30        38.8508   27.6015   39.0702 C.ar        1 MOL      -0.0865
      9 C28        38.9904   28.4459   37.9548 C.ar        1 MOL      -0.0544
     10 N31        38.0726   24.3974   37.4151 N.pl3       1 MOL      -0.3075
     11 C33        36.7272   23.9445   37.1473 C.3         1 MOL       0.0499
     12 C35        36.6853   23.1221   35.8343 C.3         1 MOL       0.0673
     13 O37        37.7223   22.1188   35.8156 O.3         1 MOL      -0.3759
     14 C36        39.0471   22.6572   36.0044 C.3         1 MOL       0.0673
     15 C34        39.1409   23.4271   37.3468 C.3         1 MOL       0.0499
     16 C19        40.0915   30.1572   34.0274 C.ar        1 MOL       0.0497
     17 C23        38.9602   30.7778   33.4580 C.ar        1 MOL      -0.0479
     18 C20        39.0489   31.4544   32.2287 C.ar        1 MOL      -0.0536
     19 C18        40.2692   31.5149   31.5104 C.ar        1 MOL      -0.0326
     20 C21        40.3045   32.2306   30.2088 C.3         1 MOL      -0.0276
     21 C15        41.4155   30.8686   32.0581 C.ar        1 MOL      -0.0123
     22 C17        41.3111   30.2143   33.3112 C.ar        1 MOL      -0.0399
     23 C12        42.6611   30.7942   31.3764 C.ar        1 MOL      -0.0269
     24 C9         43.5428   31.9046   31.3010 C.ar        1 MOL      -0.0647
     25 C4         44.8017   31.7937   30.6740 C.ar        1 MOL      -0.0614
     26 C1         45.1867   30.5536   30.1208 C.ar        1 MOL       0.0282
     27 C3         44.3117   29.4744   30.1680 C.ar        1 MOL       0.1528
     28 O8         44.8917   28.4225   29.5610 O.3         1 MOL      -0.1790
     29 C7         43.0587   29.5642   30.7881 C.ar        1 MOL      -0.0179
     30 C2         46.3345   30.0753   29.4866 C.2         1 MOL       0.0534
     31 N6         46.0817   28.7883   29.1613 N.2         1 MOL      -0.1500
     32 C5         47.6124   30.7931   29.2031 C.3         1 MOL       0.0120
     33 C10        48.6796   29.9208   28.4609 C.3         1 MOL       0.0001
     34 C13        49.3544   28.8659   29.3851 C.3         1 MOL      -0.0317
     35 N16        49.8697   29.4785   30.6320 N.4         1 MOL       0.2272
     36 C14        48.8714   30.2677   31.3867 C.3         1 MOL      -0.0317
     37 C11        48.2687   31.3819   30.4943 C.3         1 MOL       0.0001
     38 H1         38.3622   28.5525   34.8066 H           1 MOL       0.2248
     39 H2         38.3224   26.2071   35.5402 H           1 MOL       0.0391
     40 H3         38.4728   25.6313   39.7068 H           1 MOL       0.0393
     41 H4         38.9722   27.9779   40.0125 H           1 MOL       0.0546
     42 H5         39.2067   29.4358   38.1009 H           1 MOL       0.0398
     43 H6         36.0157   24.7725   37.0775 H           1 MOL       0.0536
     44 H7         36.4049   23.3066   37.9746 H           1 MOL       0.0536
     45 H8         36.7954   23.7821   34.9700 H           1 MOL       0.0579
     46 H9         35.7189   22.6187   35.7530 H           1 MOL       0.0579
     47 H10        39.3030   23.3162   35.1675 H           1 MOL       0.0579
     48 H11        39.7567   21.8285   36.0073 H           1 MOL       0.0579
     49 H12        39.0334   22.7196   38.1714 H           1 MOL       0.0536
     50 H13        40.1313   23.8886   37.4286 H           1 MOL       0.0536
     51 H14        38.0605   30.7722   33.9475 H           1 MOL       0.0652
     52 H15        38.2111   31.9092   31.8613 H           1 MOL       0.0569
     53 H16        39.3100   32.5302   29.8692 H           1 MOL       0.0406
     54 H17        40.7401   31.5925   29.4371 H           1 MOL       0.0406
     55 H18        40.9090   33.1335   30.3052 H           1 MOL       0.0406
     56 H19        42.1387   29.7474   33.6986 H           1 MOL       0.0658
     57 H20        43.2815   32.8018   31.7229 H           1 MOL       0.0538
     58 H21        45.4220   32.6041   30.6319 H           1 MOL       0.0598
     59 H22        42.4582   28.7388   30.8192 H           1 MOL       0.0568
     60 H23        47.3598   31.6298   28.5417 H           1 MOL       0.0460
     61 H24        49.4636   30.5788   28.0703 H           1 MOL       0.0340
     62 H25        48.2265   29.4157   27.6034 H           1 MOL       0.0340
     63 H26        50.1935   28.4097   28.8557 H           1 MOL       0.0815
     64 H27        48.6507   28.0723   29.6383 H           1 MOL       0.0815
     65 H28        50.6521   30.0936   30.3915 H           1 MOL       0.2013
     66 H29        50.2189   28.7327   31.2400 H           1 MOL       0.2013
     67 H30        49.3630   30.7217   32.2496 H           1 MOL       0.0815
     68 H31        48.0797   29.6094   31.7584 H           1 MOL       0.0815
     69 H32        47.5484   31.9546   31.0785 H           1 MOL       0.0340
     70 H33        49.0683   32.0704   30.2062 H           1 MOL       0.0340
@<TRIPOS>BOND
     1     1     2   2
     2     2     3  am
     3     2    16   1
     4     3     4   1
     5     4     5  ar
     6     4     9  ar
     7     5     6  ar
     8     6     7  ar
     9     6    10   1
    10     7     8  ar
    11     8     9  ar
    12    10    11   1
    13    10    15   1
    14    11    12   1
    15    12    13   1
    16    13    14   1
    17    14    15   1
    18    16    17  ar
    19    16    22  ar
    20    17    18  ar
    21    18    19  ar
    22    19    20   1
    23    19    21  ar
    24    21    22  ar
    25    21    23   1
    26    23    24  ar
    27    23    29  ar
    28    24    25  ar
    29    25    26  ar
    30    26    27  ar
    31    26    30   1
    32    27    28   1
    33    27    29  ar
    34    28    31   1
    35    30    31   2
    36    30    32   1
    37    32    33   1
    38    32    37   1
    39    33    34   1
    40    34    35   1
    41    35    36   1
    42    36    37   1
    43     3    38   1
    44     5    39   1
    45     7    40   1
    46     8    41   1
    47     9    42   1
    48    11    43   1
    49    11    44   1
    50    12    45   1
    51    12    46   1
    52    14    47   1
    53    14    48   1
    54    15    49   1
    55    15    50   1
    56    17    51   1
    57    18    52   1
    58    20    53   1
    59    20    54   1
    60    20    55   1
    61    22    56   1
    62    24    57   1
    63    25    58   1
    64    29    59   1
    65    32    60   1
    66    33    61   1
    67    33    62   1
    68    34    63   1
    69    34    64   1
    70    35    65   1
    71    35    66   1
    72    36    67   1
    73    36    68   1
    74    37    69   1
    75    37    70   1
@<TRIPOS>SUBSTRUCTURE
     1  MOL      2

