@<TRIPOS>MOLECULE
3e93_ligand_081
    70    75
SMALL
GAST_HUCK
****
This file was generated by PARSER (from files_GN.cpp)

@<TRIPOS>ATOM
      1 O25        34.9959   16.3250   42.1797 O.2         1 MOL      -0.3760
      2 C22        35.3654   17.2434   41.4644 C.2         1 MOL       0.2274
      3 N24        35.3121   18.5151   41.8578 N.am        1 MOL      -0.2370
      4 C26        34.8550   19.0341   43.0504 C.ar        1 MOL       0.0536
      5 C27        33.9249   18.4002   43.9071 C.ar        1 MOL      -0.0255
      6 C29        33.5516   18.9744   45.1412 C.ar        1 MOL       0.0259
      7 C32        34.0916   20.2167   45.5199 C.ar        1 MOL      -0.0595
      8 C30        34.9873   20.8828   44.6605 C.ar        1 MOL      -0.0865
      9 C28        35.3563   20.2993   43.4365 C.ar        1 MOL      -0.0544
     10 N31        32.7284   18.2918   45.9806 N.pl3       1 MOL      -0.3075
     11 C33        33.2765   17.3668   46.9398 C.3         1 MOL       0.0499
     12 C35        32.6835   17.6746   48.3370 C.3         1 MOL       0.0673
     13 O37        31.2433   17.7540   48.2765 O.3         1 MOL      -0.3759
     14 C36        30.7579   18.7397   47.3387 C.3         1 MOL       0.0673
     15 C34        31.2994   18.4525   45.9144 C.3         1 MOL       0.0499
     16 C19        35.8455   16.9099   40.1977 C.ar        1 MOL       0.0497
     17 C23        35.1925   15.9197   39.4398 C.ar        1 MOL      -0.0479
     18 C20        35.6188   15.6038   38.1363 C.ar        1 MOL      -0.0536
     19 C18        36.7530   16.2284   37.5755 C.ar        1 MOL      -0.0326
     20 C21        37.1219   15.9217   36.1666 C.3         1 MOL      -0.0276
     21 C15        37.4897   17.1532   38.3709 C.ar        1 MOL      -0.0123
     22 C17        37.0060   17.5145   39.6528 C.ar        1 MOL      -0.0399
     23 C12        38.7592   17.6451   37.9667 C.ar        1 MOL      -0.0269
     24 C9         39.8497   16.7406   37.8559 C.ar        1 MOL      -0.0647
     25 C4         41.1324   17.1929   37.5058 C.ar        1 MOL      -0.0614
     26 C1         41.3359   18.5681   37.2801 C.ar        1 MOL       0.0282
     27 C3         40.2770   19.4631   37.4103 C.ar        1 MOL       0.1528
     28 O8         40.7405   20.7092   37.1873 O.3         1 MOL      -0.1790
     29 C7         38.9834   19.0265   37.7447 C.ar        1 MOL      -0.0179
     30 C2         42.4373   19.3467   36.9431 C.2         1 MOL       0.0534
     31 N6         42.0211   20.6291   36.9153 N.2         1 MOL      -0.1500
     32 C5         43.8253   18.8966   36.6411 C.3         1 MOL       0.0120
     33 C10        44.7432   19.0015   37.8927 C.3         1 MOL       0.0001
     34 C13        46.1900   18.5582   37.5580 C.3         1 MOL      -0.0317
     35 N16        46.7287   19.3177   36.4096 N.4         1 MOL       0.2272
     36 C14        45.9028   19.2464   35.1813 C.3         1 MOL      -0.0317
     37 C11        44.4458   19.6972   35.4587 C.3         1 MOL       0.0001
     38 H1         35.6797   19.1640   41.2352 H           1 MOL       0.2248
     39 H2         33.4936   17.5168   43.6374 H           1 MOL       0.0391
     40 H3         33.8415   20.6435   46.4151 H           1 MOL       0.0393
     41 H4         35.3848   21.7836   44.9394 H           1 MOL       0.0546
     42 H5         36.0187   20.7946   42.8325 H           1 MOL       0.0398
     43 H6         34.3684   17.4189   46.9939 H           1 MOL       0.0536
     44 H7         33.0038   16.3476   46.6506 H           1 MOL       0.0536
     45 H8         33.0944   18.6150   48.7211 H           1 MOL       0.0579
     46 H9         32.9568   16.8787   49.0320 H           1 MOL       0.0579
     47 H10        31.0585   19.7405   47.6604 H           1 MOL       0.0579
     48 H11        29.6670   18.6991   47.3278 H           1 MOL       0.0579
     49 H12        30.8542   17.5251   45.5456 H           1 MOL       0.0536
     50 H13        30.9985   19.2623   45.2416 H           1 MOL       0.0536
     51 H14        34.3653   15.4386   39.8077 H           1 MOL       0.0652
     52 H15        35.0864   14.9130   37.6050 H           1 MOL       0.0569
     53 H16        36.3879   15.2841   35.6716 H           1 MOL       0.0406
     54 H17        38.0836   15.4112   36.1299 H           1 MOL       0.0406
     55 H18        37.1893   16.8505   35.5974 H           1 MOL       0.0406
     56 H19        37.5423   18.1741   40.2258 H           1 MOL       0.0658
     57 H20        39.7185   15.7419   38.0418 H           1 MOL       0.0538
     58 H21        41.8986   16.5214   37.4479 H           1 MOL       0.0598
     59 H22        38.2259   19.7088   37.8340 H           1 MOL       0.0568
     60 H23        43.7850   17.8444   36.3380 H           1 MOL       0.0460
     61 H24        44.3531   18.3662   38.6965 H           1 MOL       0.0340
     62 H25        44.7614   20.0339   38.2510 H           1 MOL       0.0340
     63 H26        46.2149   17.4887   37.3375 H           1 MOL       0.0815
     64 H27        46.8331   18.7370   38.4249 H           1 MOL       0.0815
     65 H28        47.6609   18.9585   36.1861 H           1 MOL       0.2013
     66 H29        46.8244   20.2961   36.6913 H           1 MOL       0.2013
     67 H30        45.9049   18.2233   34.7970 H           1 MOL       0.0815
     68 H31        46.3451   19.8936   34.4246 H           1 MOL       0.0815
     69 H32        44.4584   20.7657   35.6978 H           1 MOL       0.0340
     70 H33        43.8458   19.5556   34.5544 H           1 MOL       0.0340
@<TRIPOS>BOND
     1     1     2   2
     2     2     3  am
     3     2    16   1
     4     3     4   1
     5     4     5  ar
     6     4     9  ar
     7     5     6  ar
     8     6     7  ar
     9     6    10   1
    10     7     8  ar
    11     8     9  ar
    12    10    11   1
    13    10    15   1
    14    11    12   1
    15    12    13   1
    16    13    14   1
    17    14    15   1
    18    16    17  ar
    19    16    22  ar
    20    17    18  ar
    21    18    19  ar
    22    19    20   1
    23    19    21  ar
    24    21    22  ar
    25    21    23   1
    26    23    24  ar
    27    23    29  ar
    28    24    25  ar
    29    25    26  ar
    30    26    27  ar
    31    26    30   1
    32    27    28   1
    33    27    29  ar
    34    28    31   1
    35    30    31   2
    36    30    32   1
    37    32    33   1
    38    32    37   1
    39    33    34   1
    40    34    35   1
    41    35    36   1
    42    36    37   1
    43     3    38   1
    44     5    39   1
    45     7    40   1
    46     8    41   1
    47     9    42   1
    48    11    43   1
    49    11    44   1
    50    12    45   1
    51    12    46   1
    52    14    47   1
    53    14    48   1
    54    15    49   1
    55    15    50   1
    56    17    51   1
    57    18    52   1
    58    20    53   1
    59    20    54   1
    60    20    55   1
    61    22    56   1
    62    24    57   1
    63    25    58   1
    64    29    59   1
    65    32    60   1
    66    33    61   1
    67    33    62   1
    68    34    63   1
    69    34    64   1
    70    35    65   1
    71    35    66   1
    72    36    67   1
    73    36    68   1
    74    37    69   1
    75    37    70   1
@<TRIPOS>SUBSTRUCTURE
     1  MOL      2

