@<TRIPOS>MOLECULE
3e93_ligand_026
    70    75
SMALL
GAST_HUCK
****
This file was generated by PARSER (from files_GN.cpp)

@<TRIPOS>ATOM
      1 O25        41.6912   18.7210   36.1431 O.2         1 MOL      -0.3760
      2 C22        41.8222   19.8415   36.6291 C.2         1 MOL       0.2274
      3 N24        43.0260   20.2555   37.0264 N.am        1 MOL      -0.2370
      4 C26        44.2126   19.5722   36.9302 C.ar        1 MOL       0.0536
      5 C27        44.3424   18.1856   37.1725 C.ar        1 MOL      -0.0255
      6 C29        45.5376   17.4762   36.8778 C.ar        1 MOL       0.0259
      7 C32        46.6445   18.2354   36.4125 C.ar        1 MOL      -0.0595
      8 C30        46.5644   19.6271   36.2726 C.ar        1 MOL      -0.0865
      9 C28        45.3555   20.2931   36.5246 C.ar        1 MOL      -0.0544
     10 N31        45.5893   16.1113   36.9946 N.pl3       1 MOL      -0.3075
     11 C33        45.8960   15.2561   35.8601 C.3         1 MOL       0.0499
     12 C35        46.9124   14.1668   36.2646 C.3         1 MOL       0.0673
     13 O37        46.4590   13.4553   37.4335 O.3         1 MOL      -0.3759
     14 C36        46.2272   14.3203   38.5614 C.3         1 MOL       0.0673
     15 C34        45.1942   15.4213   38.2137 C.3         1 MOL       0.0499
     16 C19        40.7014   20.6810   36.6264 C.ar        1 MOL       0.0497
     17 C23        39.4011   20.1310   36.7531 C.ar        1 MOL      -0.0479
     18 C20        38.2559   20.9341   36.6446 C.ar        1 MOL      -0.0536
     19 C18        38.3574   22.3200   36.3926 C.ar        1 MOL      -0.0326
     20 C21        37.1037   23.1049   36.1832 C.3         1 MOL      -0.0276
     21 C15        39.6564   22.9054   36.3079 C.ar        1 MOL      -0.0123
     22 C17        40.8020   22.0815   36.4346 C.ar        1 MOL      -0.0399
     23 C12        39.8428   24.2858   36.0113 C.ar        1 MOL      -0.0269
     24 C9         40.5021   24.6674   34.8122 C.ar        1 MOL      -0.0647
     25 C4         40.6227   26.0232   34.4487 C.ar        1 MOL      -0.0614
     26 C1         40.0746   27.0085   35.2922 C.ar        1 MOL       0.0282
     27 C3         39.4547   26.6386   36.4832 C.ar        1 MOL       0.1528
     28 O8         39.0141   27.7544   37.0959 O.3         1 MOL      -0.1790
     29 C7         39.3405   25.2915   36.8729 C.ar        1 MOL      -0.0179
     30 C2         39.9894   28.3994   35.2408 C.2         1 MOL       0.0534
     31 N6         39.3321   28.7847   36.3550 N.2         1 MOL      -0.1500
     32 C5         40.5280   29.3170   34.1978 C.3         1 MOL       0.0120
     33 C10        41.5663   30.3348   34.7693 C.3         1 MOL       0.0001
     34 C13        40.9134   31.5366   35.5058 C.3         1 MOL      -0.0317
     35 N16        39.8686   32.1731   34.6727 N.4         1 MOL       0.2272
     36 C14        38.8068   31.2536   34.2096 C.3         1 MOL      -0.0317
     37 C11        39.4070   30.0671   33.4139 C.3         1 MOL       0.0001
     38 H1         43.0992   21.1843   37.2973 H           1 MOL       0.2248
     39 H2         43.5196   17.6722   37.4918 H           1 MOL       0.0391
     40 H3         47.5402   17.7865   36.2139 H           1 MOL       0.0393
     41 H4         47.3882   20.1547   35.9686 H           1 MOL       0.0546
     42 H5         45.2969   21.3021   36.3651 H           1 MOL       0.0398
     43 H6         46.2740   15.7827   34.9826 H           1 MOL       0.0536
     44 H7         44.9700   14.7672   35.5479 H           1 MOL       0.0536
     45 H8         47.8955   14.6121   36.4436 H           1 MOL       0.0579
     46 H9         47.0081   13.4494   35.4499 H           1 MOL       0.0579
     47 H10        47.1697   14.7811   38.8715 H           1 MOL       0.0579
     48 H11        45.8517   13.7191   39.3941 H           1 MOL       0.0579
     49 H12        44.2092   14.9656   38.0766 H           1 MOL       0.0536
     50 H13        45.1489   16.0883   39.0799 H           1 MOL       0.0536
     51 H14        39.2713   19.1305   36.9181 H           1 MOL       0.0652
     52 H15        37.3389   20.4871   36.7338 H           1 MOL       0.0569
     53 H16        36.2126   22.4682   36.1765 H           1 MOL       0.0406
     54 H17        37.1426   23.6324   35.2250 H           1 MOL       0.0406
     55 H18        36.9895   23.8351   36.9869 H           1 MOL       0.0406
     56 H19        41.7294   22.5103   36.3358 H           1 MOL       0.0658
     57 H20        40.8763   23.9526   34.1800 H           1 MOL       0.0538
     58 H21        41.0904   26.2782   33.5752 H           1 MOL       0.0598
     59 H22        38.8646   25.0452   37.7474 H           1 MOL       0.0568
     60 H23        41.0616   28.7010   33.4668 H           1 MOL       0.0460
     61 H24        42.1523   30.7341   33.9371 H           1 MOL       0.0340
     62 H25        42.2652   29.8312   35.4427 H           1 MOL       0.0340
     63 H26        41.6752   32.2874   35.7254 H           1 MOL       0.0815
     64 H27        40.4853   31.2204   36.4588 H           1 MOL       0.0815
     65 H28        40.3178   32.5832   33.8513 H           1 MOL       0.2013
     66 H29        39.4344   32.9256   35.2113 H           1 MOL       0.2013
     67 H30        38.1214   31.8116   33.5671 H           1 MOL       0.0815
     68 H31        38.2363   30.8864   35.0640 H           1 MOL       0.0815
     69 H32        38.6075   29.3789   33.1317 H           1 MOL       0.0340
     70 H33        39.8336   30.4608   32.4866 H           1 MOL       0.0340
@<TRIPOS>BOND
     1     1     2   2
     2     2     3  am
     3     2    16   1
     4     3     4   1
     5     4     5  ar
     6     4     9  ar
     7     5     6  ar
     8     6     7  ar
     9     6    10   1
    10     7     8  ar
    11     8     9  ar
    12    10    11   1
    13    10    15   1
    14    11    12   1
    15    12    13   1
    16    13    14   1
    17    14    15   1
    18    16    17  ar
    19    16    22  ar
    20    17    18  ar
    21    18    19  ar
    22    19    20   1
    23    19    21  ar
    24    21    22  ar
    25    21    23   1
    26    23    24  ar
    27    23    29  ar
    28    24    25  ar
    29    25    26  ar
    30    26    27  ar
    31    26    30   1
    32    27    28   1
    33    27    29  ar
    34    28    31   1
    35    30    31   2
    36    30    32   1
    37    32    33   1
    38    32    37   1
    39    33    34   1
    40    34    35   1
    41    35    36   1
    42    36    37   1
    43     3    38   1
    44     5    39   1
    45     7    40   1
    46     8    41   1
    47     9    42   1
    48    11    43   1
    49    11    44   1
    50    12    45   1
    51    12    46   1
    52    14    47   1
    53    14    48   1
    54    15    49   1
    55    15    50   1
    56    17    51   1
    57    18    52   1
    58    20    53   1
    59    20    54   1
    60    20    55   1
    61    22    56   1
    62    24    57   1
    63    25    58   1
    64    29    59   1
    65    32    60   1
    66    33    61   1
    67    33    62   1
    68    34    63   1
    69    34    64   1
    70    35    65   1
    71    35    66   1
    72    36    67   1
    73    36    68   1
    74    37    69   1
    75    37    70   1
@<TRIPOS>SUBSTRUCTURE
     1  MOL      2

