@<TRIPOS>MOLECULE
3e93_ligand_024
    70    75
SMALL
GAST_HUCK
****
This file was generated by PARSER (from files_GN.cpp)

@<TRIPOS>ATOM
      1 O25        33.6752   18.5060   43.1696 O.2         1 MOL      -0.3760
      2 C22        34.4873   18.7767   44.0456 C.2         1 MOL       0.2274
      3 N24        34.1260   18.6994   45.3263 N.am        1 MOL      -0.2370
      4 C26        32.9081   18.3355   45.8358 C.ar        1 MOL       0.0536
      5 C27        32.3784   19.0837   46.9084 C.ar        1 MOL      -0.0255
      6 C29        31.0692   18.8630   47.4260 C.ar        1 MOL       0.0259
      7 C32        30.3457   17.7832   46.8475 C.ar        1 MOL      -0.0595
      8 C30        30.8921   16.9686   45.8423 C.ar        1 MOL      -0.0865
      9 C28        32.1670   17.2466   45.3348 C.ar        1 MOL      -0.0544
     10 N31        30.5158   19.6620   48.4156 N.pl3       1 MOL      -0.3075
     11 C33        31.3581   20.2755   49.4427 C.3         1 MOL       0.0499
     12 C35        30.6599   21.1473   50.5292 C.3         1 MOL       0.0673
     13 O37        29.2482   20.9052   50.6523 O.3         1 MOL      -0.3759
     14 C36        28.5874   20.9692   49.3832 C.3         1 MOL       0.0673
     15 C34        29.0680   19.7824   48.5319 C.3         1 MOL       0.0499
     16 C19        35.7730   19.1900   43.6657 C.ar        1 MOL       0.0497
     17 C23        36.8745   19.0223   44.5325 C.ar        1 MOL      -0.0479
     18 C20        38.1754   19.3389   44.1192 C.ar        1 MOL      -0.0536
     19 C18        38.4284   19.8313   42.8202 C.ar        1 MOL      -0.0326
     20 C21        39.8452   20.0139   42.4060 C.3         1 MOL      -0.0276
     21 C15        37.3326   20.0784   41.9394 C.ar        1 MOL      -0.0123
     22 C17        36.0278   19.7355   42.3807 C.ar        1 MOL      -0.0399
     23 C12        37.4937   20.6270   40.6238 C.ar        1 MOL      -0.0269
     24 C9         38.2003   21.8428   40.4243 C.ar        1 MOL      -0.0647
     25 C4         38.4005   22.3759   39.1324 C.ar        1 MOL      -0.0614
     26 C1         37.8609   21.7018   38.0198 C.ar        1 MOL       0.0282
     27 C3         37.1125   20.5447   38.2088 C.ar        1 MOL       0.1528
     28 O8         36.6742   20.1193   37.0045 O.3         1 MOL      -0.1790
     29 C7         36.9278   19.9891   39.4876 C.ar        1 MOL      -0.0179
     30 C2         37.8889   21.9105   36.6406 C.2         1 MOL       0.0534
     31 N6         37.1433   20.9289   36.0893 N.2         1 MOL      -0.1500
     32 C5         38.6101   22.9397   35.8421 C.3         1 MOL       0.0120
     33 C10        40.1533   22.8516   36.0541 C.3         1 MOL       0.0001
     34 C13        40.8946   23.9671   35.2758 C.3         1 MOL      -0.0317
     35 N16        40.3584   25.2933   35.6535 N.4         1 MOL       0.2272
     36 C14        38.9171   25.4475   35.3471 C.3         1 MOL      -0.0317
     37 C11        38.0791   24.3819   36.1011 C.3         1 MOL       0.0001
     38 H1         34.7504   19.0643   45.9709 H           1 MOL       0.2248
     39 H2         32.9392   19.8658   47.2426 H           1 MOL       0.0391
     40 H3         29.4113   17.5410   47.1792 H           1 MOL       0.0393
     41 H4         30.3521   16.1770   45.4806 H           1 MOL       0.0546
     42 H5         32.5483   16.6413   44.6019 H           1 MOL       0.0398
     43 H6         32.1092   20.9219   48.9822 H           1 MOL       0.0536
     44 H7         31.8949   19.4647   49.9516 H           1 MOL       0.0536
     45 H8         30.8066   22.2088   50.3099 H           1 MOL       0.0579
     46 H9         31.1148   20.9543   51.5036 H           1 MOL       0.0579
     47 H10        28.7902   21.9151   48.8717 H           1 MOL       0.0579
     48 H11        27.5110   20.8953   49.5408 H           1 MOL       0.0579
     49 H12        28.6726   18.8633   48.9720 H           1 MOL       0.0536
     50 H13        28.6258   19.9059   47.5383 H           1 MOL       0.0536
     51 H14        36.7570   18.6315   45.4682 H           1 MOL       0.0652
     52 H15        38.9445   19.1747   44.7741 H           1 MOL       0.0569
     53 H16        40.5545   19.6232   43.1395 H           1 MOL       0.0406
     54 H17        40.0605   21.0735   42.2599 H           1 MOL       0.0406
     55 H18        40.0317   19.4819   41.4759 H           1 MOL       0.0406
     56 H19        35.2412   19.9079   41.7515 H           1 MOL       0.0658
     57 H20        38.5789   22.3586   41.2245 H           1 MOL       0.0538
     58 H21        38.9272   23.2452   39.0148 H           1 MOL       0.0598
     59 H22        36.3947   19.1166   39.5792 H           1 MOL       0.0568
     60 H23        38.4254   22.7181   34.7843 H           1 MOL       0.0460
     61 H24        40.5226   21.8781   35.7211 H           1 MOL       0.0340
     62 H25        40.3962   22.9544   37.1142 H           1 MOL       0.0340
     63 H26        40.7927   23.8119   34.1985 H           1 MOL       0.0815
     64 H27        41.9580   23.9358   35.5145 H           1 MOL       0.0815
     65 H28        40.8966   26.0254   35.1846 H           1 MOL       0.2013
     66 H29        40.4791   25.4094   36.6606 H           1 MOL       0.2013
     67 H30        38.7571   25.3599   34.2692 H           1 MOL       0.0815
     68 H31        38.5971   26.4454   35.6553 H           1 MOL       0.0815
     69 H32        38.1198   24.6124   37.1661 H           1 MOL       0.0340
     70 H33        37.0357   24.4533   35.7831 H           1 MOL       0.0340
@<TRIPOS>BOND
     1     1     2   2
     2     2     3  am
     3     2    16   1
     4     3     4   1
     5     4     5  ar
     6     4     9  ar
     7     5     6  ar
     8     6     7  ar
     9     6    10   1
    10     7     8  ar
    11     8     9  ar
    12    10    11   1
    13    10    15   1
    14    11    12   1
    15    12    13   1
    16    13    14   1
    17    14    15   1
    18    16    17  ar
    19    16    22  ar
    20    17    18  ar
    21    18    19  ar
    22    19    20   1
    23    19    21  ar
    24    21    22  ar
    25    21    23   1
    26    23    24  ar
    27    23    29  ar
    28    24    25  ar
    29    25    26  ar
    30    26    27  ar
    31    26    30   1
    32    27    28   1
    33    27    29  ar
    34    28    31   1
    35    30    31   2
    36    30    32   1
    37    32    33   1
    38    32    37   1
    39    33    34   1
    40    34    35   1
    41    35    36   1
    42    36    37   1
    43     3    38   1
    44     5    39   1
    45     7    40   1
    46     8    41   1
    47     9    42   1
    48    11    43   1
    49    11    44   1
    50    12    45   1
    51    12    46   1
    52    14    47   1
    53    14    48   1
    54    15    49   1
    55    15    50   1
    56    17    51   1
    57    18    52   1
    58    20    53   1
    59    20    54   1
    60    20    55   1
    61    22    56   1
    62    24    57   1
    63    25    58   1
    64    29    59   1
    65    32    60   1
    66    33    61   1
    67    33    62   1
    68    34    63   1
    69    34    64   1
    70    35    65   1
    71    35    66   1
    72    36    67   1
    73    36    68   1
    74    37    69   1
    75    37    70   1
@<TRIPOS>SUBSTRUCTURE
     1  MOL      2

