@<TRIPOS>MOLECULE
3e93_ligand_023
    70    75
SMALL
GAST_HUCK
****
This file was generated by PARSER (from files_GN.cpp)

@<TRIPOS>ATOM
      1 O25        38.0998   24.0979   39.2874 O.2         1 MOL      -0.3760
      2 C22        38.2736   23.3208   38.3518 C.2         1 MOL       0.2274
      3 N24        37.9130   22.0394   38.4516 N.am        1 MOL      -0.2370
      4 C26        37.2144   21.3965   39.4494 C.ar        1 MOL       0.0536
      5 C27        36.3512   22.0343   40.3781 C.ar        1 MOL      -0.0255
      6 C29        35.6298   21.3331   41.3747 C.ar        1 MOL       0.0259
      7 C32        35.7842   19.9230   41.3982 C.ar        1 MOL      -0.0595
      8 C30        36.6352   19.2616   40.4961 C.ar        1 MOL      -0.0865
      9 C28        37.3274   19.9913   39.5163 C.ar        1 MOL      -0.0544
     10 N31        34.7997   21.9909   42.2531 N.pl3       1 MOL      -0.3075
     11 C33        35.0435   23.3500   42.7080 C.3         1 MOL       0.0499
     12 C35        33.8810   24.2570   42.2361 C.3         1 MOL       0.0673
     13 O37        32.6194   23.7225   42.6838 O.3         1 MOL      -0.3759
     14 C36        32.3840   22.3575   42.2855 C.3         1 MOL       0.0673
     15 C34        33.5477   21.4275   42.7236 C.3         1 MOL       0.0499
     16 C19        38.9199   23.8268   37.2226 C.ar        1 MOL       0.0497
     17 C23        38.7392   25.1799   36.8475 C.ar        1 MOL      -0.0479
     18 C20        39.4028   25.7228   35.7376 C.ar        1 MOL      -0.0536
     19 C18        40.2874   24.9400   34.9670 C.ar        1 MOL      -0.0326
     20 C21        41.0134   25.5856   33.8380 C.3         1 MOL      -0.0276
     21 C15        40.4780   23.5686   35.3135 C.ar        1 MOL      -0.0123
     22 C17        39.7855   23.0365   36.4297 C.ar        1 MOL      -0.0399
     23 C12        41.3671   22.7182   34.6008 C.ar        1 MOL      -0.0269
     24 C9         41.0942   22.3304   33.2613 C.ar        1 MOL      -0.0647
     25 C4         41.9477   21.4413   32.5726 C.ar        1 MOL      -0.0614
     26 C1         43.0796   20.9375   33.2414 C.ar        1 MOL       0.0282
     27 C3         43.3514   21.3093   34.5515 C.ar        1 MOL       0.1528
     28 O8         44.4764   20.6729   34.9457 O.3         1 MOL      -0.1790
     29 C7         42.5157   22.1974   35.2482 C.ar        1 MOL      -0.0179
     30 C2         44.0964   20.0524   32.8869 C.2         1 MOL       0.0534
     31 N6         44.9093   19.9293   33.9570 N.2         1 MOL      -0.1500
     32 C5         44.2900   19.3523   31.5920 C.3         1 MOL       0.0120
     33 C10        44.0950   17.8152   31.7318 C.3         1 MOL       0.0001
     34 C13        44.2850   17.1182   30.3601 C.3         1 MOL      -0.0317
     35 N16        45.5780   17.4705   29.7277 N.4         1 MOL       0.2272
     36 C14        45.8576   18.9211   29.6188 C.3         1 MOL      -0.0317
     37 C11        45.6858   19.6556   30.9733 C.3         1 MOL       0.0001
     38 H1         38.1749   21.4687   37.7102 H           1 MOL       0.2248
     39 H2         36.1530   23.0214   40.2626 H           1 MOL       0.0391
     40 H3         35.3346   19.3645   42.1284 H           1 MOL       0.0393
     41 H4         36.7407   18.2454   40.5486 H           1 MOL       0.0546
     42 H5         37.9255   19.4858   38.8557 H           1 MOL       0.0398
     43 H6         35.9983   23.7635   42.3846 H           1 MOL       0.0536
     44 H7         35.0673   23.3559   43.8027 H           1 MOL       0.0536
     45 H8         33.8908   24.3438   41.1466 H           1 MOL       0.0579
     46 H9         34.0041   25.2585   42.6562 H           1 MOL       0.0579
     47 H10        32.2568   22.3072   41.1998 H           1 MOL       0.0579
     48 H11        31.4507   22.0221   42.7433 H           1 MOL       0.0579
     49 H12        33.5748   21.3477   43.8086 H           1 MOL       0.0536
     50 H13        33.3372   20.4334   42.3310 H           1 MOL       0.0536
     51 H14        38.1122   25.7881   37.3717 H           1 MOL       0.0652
     52 H15        39.2421   26.7089   35.5084 H           1 MOL       0.0569
     53 H16        40.8699   26.6665   33.8105 H           1 MOL       0.0406
     54 H17        40.6604   25.1857   32.8883 H           1 MOL       0.0406
     55 H18        42.0846   25.3980   33.9314 H           1 MOL       0.0406
     56 H19        39.9477   22.0582   36.6823 H           1 MOL       0.0658
     57 H20        40.2601   22.6808   32.7830 H           1 MOL       0.0538
     58 H21        41.7369   21.1703   31.6092 H           1 MOL       0.0598
     59 H22        42.7480   22.4488   36.2110 H           1 MOL       0.0568
     60 H23        43.5341   19.7136   30.8887 H           1 MOL       0.0460
     61 H24        43.0904   17.5991   32.1051 H           1 MOL       0.0340
     62 H25        44.8182   17.4070   32.4416 H           1 MOL       0.0340
     63 H26        43.4685   17.3974   29.6871 H           1 MOL       0.0815
     64 H27        44.2504   16.0345   30.4946 H           1 MOL       0.0815
     65 H28        45.5840   17.0770   28.7836 H           1 MOL       0.2013
     66 H29        46.3380   17.0331   30.2490 H           1 MOL       0.2013
     67 H30        45.1911   19.3617   28.8706 H           1 MOL       0.0815
     68 H31        46.8837   19.0458   29.2678 H           1 MOL       0.0815
     69 H32        46.4757   19.3264   31.6540 H           1 MOL       0.0340
     70 H33        45.8007   20.7308   30.8158 H           1 MOL       0.0340
@<TRIPOS>BOND
     1     1     2   2
     2     2     3  am
     3     2    16   1
     4     3     4   1
     5     4     5  ar
     6     4     9  ar
     7     5     6  ar
     8     6     7  ar
     9     6    10   1
    10     7     8  ar
    11     8     9  ar
    12    10    11   1
    13    10    15   1
    14    11    12   1
    15    12    13   1
    16    13    14   1
    17    14    15   1
    18    16    17  ar
    19    16    22  ar
    20    17    18  ar
    21    18    19  ar
    22    19    20   1
    23    19    21  ar
    24    21    22  ar
    25    21    23   1
    26    23    24  ar
    27    23    29  ar
    28    24    25  ar
    29    25    26  ar
    30    26    27  ar
    31    26    30   1
    32    27    28   1
    33    27    29  ar
    34    28    31   1
    35    30    31   2
    36    30    32   1
    37    32    33   1
    38    32    37   1
    39    33    34   1
    40    34    35   1
    41    35    36   1
    42    36    37   1
    43     3    38   1
    44     5    39   1
    45     7    40   1
    46     8    41   1
    47     9    42   1
    48    11    43   1
    49    11    44   1
    50    12    45   1
    51    12    46   1
    52    14    47   1
    53    14    48   1
    54    15    49   1
    55    15    50   1
    56    17    51   1
    57    18    52   1
    58    20    53   1
    59    20    54   1
    60    20    55   1
    61    22    56   1
    62    24    57   1
    63    25    58   1
    64    29    59   1
    65    32    60   1
    66    33    61   1
    67    33    62   1
    68    34    63   1
    69    34    64   1
    70    35    65   1
    71    35    66   1
    72    36    67   1
    73    36    68   1
    74    37    69   1
    75    37    70   1
@<TRIPOS>SUBSTRUCTURE
     1  MOL      2

