@<TRIPOS>MOLECULE
3e93_ligand_018
    70    75
SMALL
GAST_HUCK
****
This file was generated by PARSER (from files_GN.cpp)

@<TRIPOS>ATOM
      1 O25        38.4755   22.0237   39.4468 O.2         1 MOL      -0.3760
      2 C22        38.7861   21.5465   38.3632 C.2         1 MOL       0.2274
      3 N24        38.4850   20.2782   38.0872 N.am        1 MOL      -0.2370
      4 C26        37.9549   19.3477   38.9290 C.ar        1 MOL       0.0536
      5 C27        38.3551   19.2441   40.2835 C.ar        1 MOL      -0.0255
      6 C29        37.7850   18.3156   41.2035 C.ar        1 MOL       0.0259
      7 C32        36.8157   17.4296   40.6430 C.ar        1 MOL      -0.0595
      8 C30        36.4397   17.4818   39.2893 C.ar        1 MOL      -0.0865
      9 C28        37.0125   18.4273   38.4380 C.ar        1 MOL      -0.0544
     10 N31        38.1514   18.2914   42.5449 N.pl3       1 MOL      -0.3075
     11 C33        39.2077   19.1679   43.0425 C.3         1 MOL       0.0499
     12 C35        39.5338   19.1235   44.5571 C.3         1 MOL       0.0673
     13 O37        39.3159   17.8036   45.0753 O.3         1 MOL      -0.3759
     14 C36        37.9360   17.4317   44.9591 C.3         1 MOL       0.0673
     15 C34        37.5329   17.3426   43.4644 C.3         1 MOL       0.0499
     16 C19        39.3871   22.3831   37.4152 C.ar        1 MOL       0.0497
     17 C23        39.1126   23.7714   37.3821 C.ar        1 MOL      -0.0479
     18 C20        39.7173   24.6085   36.4310 C.ar        1 MOL      -0.0536
     19 C18        40.6318   24.0954   35.4855 C.ar        1 MOL      -0.0326
     20 C21        41.2331   25.0203   34.4879 C.3         1 MOL      -0.0276
     21 C15        40.9516   22.7118   35.5232 C.ar        1 MOL      -0.0123
     22 C17        40.3223   21.8782   36.4770 C.ar        1 MOL      -0.0399
     23 C12        41.8649   22.1070   34.6145 C.ar        1 MOL      -0.0269
     24 C9         41.4880   21.8991   33.2612 C.ar        1 MOL      -0.0647
     25 C4         42.3265   21.1936   32.3752 C.ar        1 MOL      -0.0614
     26 C1         43.5529   20.6949   32.8547 C.ar        1 MOL       0.0282
     27 C3         43.9300   20.9018   34.1780 C.ar        1 MOL       0.1528
     28 O8         45.1228   20.3004   34.3733 O.3         1 MOL      -0.1790
     29 C7         43.1079   21.6048   35.0738 C.ar        1 MOL      -0.0179
     30 C2         44.5747   19.9419   32.2861 C.2         1 MOL       0.0534
     31 N6         45.4922   19.7318   33.2524 N.2         1 MOL      -0.1500
     32 C5         44.6439   19.3989   30.9040 C.3         1 MOL       0.0120
     33 C10        44.3266   17.8742   30.8856 C.3         1 MOL       0.0001
     34 C13        44.4301   17.3056   29.4472 C.3         1 MOL      -0.0317
     35 N16        45.7510   17.6089   28.8504 N.4         1 MOL       0.2272
     36 C14        46.0818   19.0521   28.8092 C.3         1 MOL      -0.0317
     37 C11        46.0182   19.6824   30.2240 C.3         1 MOL       0.0001
     38 H1         38.5689   19.9998   37.1545 H           1 MOL       0.2248
     39 H2         39.0968   19.8727   40.5819 H           1 MOL       0.0391
     40 H3         36.3669   16.7100   41.2107 H           1 MOL       0.0393
     41 H4         35.7461   16.8217   38.9218 H           1 MOL       0.0546
     42 H5         36.7383   18.4546   37.4497 H           1 MOL       0.0398
     43 H6         38.9535   20.2089   42.8149 H           1 MOL       0.0536
     44 H7         40.1299   18.9189   42.5069 H           1 MOL       0.0536
     45 H8         38.9250   19.8554   45.0974 H           1 MOL       0.0579
     46 H9         40.5803   19.3904   44.7177 H           1 MOL       0.0579
     47 H10        37.2933   18.1424   45.4908 H           1 MOL       0.0579
     48 H11        37.8042   16.4571   45.4322 H           1 MOL       0.0579
     49 H12        37.7832   16.3325   43.1240 H           1 MOL       0.0536
     50 H13        36.4444   17.4547   43.4288 H           1 MOL       0.0536
     51 H14        38.4547   24.1909   38.0443 H           1 MOL       0.0652
     52 H15        39.4799   25.6050   36.4329 H           1 MOL       0.0569
     53 H16        40.9109   26.0541   34.6248 H           1 MOL       0.0406
     54 H17        40.9341   24.7137   33.4861 H           1 MOL       0.0406
     55 H18        42.3215   24.9897   34.5665 H           1 MOL       0.0406
     56 H19        40.5637   20.8836   36.4992 H           1 MOL       0.0658
     57 H20        40.5815   22.2314   32.9223 H           1 MOL       0.0538
     58 H21        42.0370   21.0369   31.4092 H           1 MOL       0.0598
     59 H22        43.4022   21.7206   36.0460 H           1 MOL       0.0568
     60 H23        43.8751   19.8899   30.3077 H           1 MOL       0.0460
     61 H24        43.3125   17.7039   31.2609 H           1 MOL       0.0340
     62 H25        45.0251   17.3378   31.5326 H           1 MOL       0.0340
     63 H26        43.6396   17.7204   28.8174 H           1 MOL       0.0815
     64 H27        44.3051   16.2203   29.4761 H           1 MOL       0.0815
     65 H28        45.7727   17.2390   27.8973 H           1 MOL       0.2013
     66 H29        46.4647   17.1292   29.3990 H           1 MOL       0.2013
     67 H30        45.3937   19.5677   28.1348 H           1 MOL       0.0815
     68 H31        47.0928   19.1618   28.4079 H           1 MOL       0.0815
     69 H32        46.8275   19.2641   30.8283 H           1 MOL       0.0340
     70 H33        46.1788   20.7620   30.1425 H           1 MOL       0.0340
@<TRIPOS>BOND
     1     1     2   2
     2     2     3  am
     3     2    16   1
     4     3     4   1
     5     4     5  ar
     6     4     9  ar
     7     5     6  ar
     8     6     7  ar
     9     6    10   1
    10     7     8  ar
    11     8     9  ar
    12    10    11   1
    13    10    15   1
    14    11    12   1
    15    12    13   1
    16    13    14   1
    17    14    15   1
    18    16    17  ar
    19    16    22  ar
    20    17    18  ar
    21    18    19  ar
    22    19    20   1
    23    19    21  ar
    24    21    22  ar
    25    21    23   1
    26    23    24  ar
    27    23    29  ar
    28    24    25  ar
    29    25    26  ar
    30    26    27  ar
    31    26    30   1
    32    27    28   1
    33    27    29  ar
    34    28    31   1
    35    30    31   2
    36    30    32   1
    37    32    33   1
    38    32    37   1
    39    33    34   1
    40    34    35   1
    41    35    36   1
    42    36    37   1
    43     3    38   1
    44     5    39   1
    45     7    40   1
    46     8    41   1
    47     9    42   1
    48    11    43   1
    49    11    44   1
    50    12    45   1
    51    12    46   1
    52    14    47   1
    53    14    48   1
    54    15    49   1
    55    15    50   1
    56    17    51   1
    57    18    52   1
    58    20    53   1
    59    20    54   1
    60    20    55   1
    61    22    56   1
    62    24    57   1
    63    25    58   1
    64    29    59   1
    65    32    60   1
    66    33    61   1
    67    33    62   1
    68    34    63   1
    69    34    64   1
    70    35    65   1
    71    35    66   1
    72    36    67   1
    73    36    68   1
    74    37    69   1
    75    37    70   1
@<TRIPOS>SUBSTRUCTURE
     1  MOL      2

