@<TRIPOS>MOLECULE
3e93_ligand_078
    70    75
SMALL
GAST_HUCK
****
This file was generated by PARSER (from files_GN.cpp)

@<TRIPOS>ATOM
      1 O25        39.7741   23.1353   39.2316 O.2         1 MOL      -0.3760
      2 C22        40.1917   23.0643   38.0778 C.2         1 MOL       0.2274
      3 N24        40.0492   24.1229   37.2811 N.am        1 MOL      -0.2370
      4 C26        39.5367   25.3478   37.6174 C.ar        1 MOL       0.0536
      5 C27        39.9257   26.0387   38.7930 C.ar        1 MOL      -0.0255
      6 C29        39.3386   27.2774   39.1394 C.ar        1 MOL       0.0259
      7 C32        38.3605   27.8366   38.2972 C.ar        1 MOL      -0.0595
      8 C30        37.9922   27.1822   37.1036 C.ar        1 MOL      -0.0865
      9 C28        38.5938   25.9555   36.7611 C.ar        1 MOL      -0.0544
     10 N31        39.7067   27.9630   40.2539 N.pl3       1 MOL      -0.3075
     11 C33        41.0376   28.5261   40.2994 C.3         1 MOL       0.0499
     12 C35        41.0960   29.6602   41.3487 C.3         1 MOL       0.0673
     13 O37        40.5973   29.1994   42.6224 O.3         1 MOL      -0.3759
     14 C36        39.2457   28.6987   42.5557 C.3         1 MOL       0.0673
     15 C34        39.1231   27.5597   41.5153 C.3         1 MOL       0.0499
     16 C19        40.7648   21.8558   37.6512 C.ar        1 MOL       0.0497
     17 C23        40.5493   20.6545   38.3668 C.ar        1 MOL      -0.0479
     18 C20        41.1742   19.4500   38.0003 C.ar        1 MOL      -0.0536
     19 C18        42.0556   19.3980   36.9026 C.ar        1 MOL      -0.0326
     20 C21        42.7345   18.1137   36.5632 C.3         1 MOL      -0.0276
     21 C15        42.2765   20.5875   36.1568 C.ar        1 MOL      -0.0123
     22 C17        41.6220   21.7907   36.5236 C.ar        1 MOL      -0.0399
     23 C12        43.1481   20.6047   35.0388 C.ar        1 MOL      -0.0269
     24 C9         42.7073   20.1293   33.7789 C.ar        1 MOL      -0.0647
     25 C4         43.5808   20.0821   32.6742 C.ar        1 MOL      -0.0614
     26 C1         44.9173   20.4985   32.8299 C.ar        1 MOL       0.0282
     27 C3         45.3346   20.9891   34.0660 C.ar        1 MOL       0.1528
     28 O8         46.6328   21.3503   33.9700 O.3         1 MOL      -0.1790
     29 C7         44.4810   21.0527   35.1788 C.ar        1 MOL      -0.0179
     30 C2         46.0539   20.5620   31.9984 C.2         1 MOL       0.0534
     31 N6         47.0375   21.1045   32.7562 N.2         1 MOL      -0.1500
     32 C5         46.2853   20.2013   30.5667 C.3         1 MOL       0.0120
     33 C10        45.2812   19.1640   29.9746 C.3         1 MOL       0.0001
     34 C13        45.6250   18.7508   28.5198 C.3         1 MOL      -0.0317
     35 N16        47.0206   18.2699   28.4029 N.4         1 MOL       0.2272
     36 C14        48.0189   19.2639   28.8602 C.3         1 MOL      -0.0317
     37 C11        47.7560   19.7004   30.3225 C.3         1 MOL       0.0001
     38 H1         40.2323   23.9861   36.3392 H           1 MOL       0.2248
     39 H2         40.6364   25.6312   39.4051 H           1 MOL       0.0391
     40 H3         37.9273   28.7371   38.5252 H           1 MOL       0.0393
     41 H4         37.2969   27.6064   36.4896 H           1 MOL       0.0546
     42 H5         38.3071   25.4914   35.8970 H           1 MOL       0.0398
     43 H6         41.3128   28.9514   39.3275 H           1 MOL       0.0536
     44 H7         41.7749   27.7545   40.5561 H           1 MOL       0.0536
     45 H8         40.5145   30.5228   41.0051 H           1 MOL       0.0579
     46 H9         42.1338   29.9807   41.4703 H           1 MOL       0.0579
     47 H10        38.5518   29.5080   42.3057 H           1 MOL       0.0579
     48 H11        38.9728   28.3157   43.5422 H           1 MOL       0.0579
     49 H12        39.6435   26.6701   41.8845 H           1 MOL       0.0536
     50 H13        38.0616   27.3092   41.4049 H           1 MOL       0.0536
     51 H14        39.9243   20.6293   39.1759 H           1 MOL       0.0652
     52 H15        40.9857   18.6104   38.5521 H           1 MOL       0.0569
     53 H16        42.4868   17.3112   37.2634 H           1 MOL       0.0406
     54 H17        43.8195   18.2485   36.5809 H           1 MOL       0.0406
     55 H18        42.4375   17.7885   35.5634 H           1 MOL       0.0406
     56 H19        41.8052   22.6333   35.9758 H           1 MOL       0.0658
     57 H20        41.7430   19.8042   33.6628 H           1 MOL       0.0538
     58 H21        43.2140   19.7383   31.7938 H           1 MOL       0.0598
     59 H22        44.8500   21.3960   36.0670 H           1 MOL       0.0568
     60 H23        46.1767   21.1294   29.9966 H           1 MOL       0.0460
     61 H24        44.2770   19.5873   29.9414 H           1 MOL       0.0340
     62 H25        45.2586   18.2729   30.6092 H           1 MOL       0.0340
     63 H26        45.4784   19.5965   27.8363 H           1 MOL       0.0815
     64 H27        44.9594   17.9433   28.2010 H           1 MOL       0.0815
     65 H28        47.2172   18.0476   27.4228 H           1 MOL       0.2013
     66 H29        47.1152   17.4157   28.9607 H           1 MOL       0.2013
     67 H30        47.9934   20.1365   28.1955 H           1 MOL       0.0815
     68 H31        49.0193   18.8179   28.7798 H           1 MOL       0.0815
     69 H32        47.9722   18.8566   30.9844 H           1 MOL       0.0340
     70 H33        48.4586   20.5057   30.5599 H           1 MOL       0.0340
@<TRIPOS>BOND
     1     1     2   2
     2     2     3  am
     3     2    16   1
     4     3     4   1
     5     4     5  ar
     6     4     9  ar
     7     5     6  ar
     8     6     7  ar
     9     6    10   1
    10     7     8  ar
    11     8     9  ar
    12    10    11   1
    13    10    15   1
    14    11    12   1
    15    12    13   1
    16    13    14   1
    17    14    15   1
    18    16    17  ar
    19    16    22  ar
    20    17    18  ar
    21    18    19  ar
    22    19    20   1
    23    19    21  ar
    24    21    22  ar
    25    21    23   1
    26    23    24  ar
    27    23    29  ar
    28    24    25  ar
    29    25    26  ar
    30    26    27  ar
    31    26    30   1
    32    27    28   1
    33    27    29  ar
    34    28    31   1
    35    30    31   2
    36    30    32   1
    37    32    33   1
    38    32    37   1
    39    33    34   1
    40    34    35   1
    41    35    36   1
    42    36    37   1
    43     3    38   1
    44     5    39   1
    45     7    40   1
    46     8    41   1
    47     9    42   1
    48    11    43   1
    49    11    44   1
    50    12    45   1
    51    12    46   1
    52    14    47   1
    53    14    48   1
    54    15    49   1
    55    15    50   1
    56    17    51   1
    57    18    52   1
    58    20    53   1
    59    20    54   1
    60    20    55   1
    61    22    56   1
    62    24    57   1
    63    25    58   1
    64    29    59   1
    65    32    60   1
    66    33    61   1
    67    33    62   1
    68    34    63   1
    69    34    64   1
    70    35    65   1
    71    35    66   1
    72    36    67   1
    73    36    68   1
    74    37    69   1
    75    37    70   1
@<TRIPOS>SUBSTRUCTURE
     1  MOL      2

