@<TRIPOS>MOLECULE
3e93_ligand_033
    70    75
SMALL
GAST_HUCK
****
This file was generated by PARSER (from files_GN.cpp)

@<TRIPOS>ATOM
      1 O25        40.7853   29.1956   36.0103 O.2         1 MOL      -0.3760
      2 C22        39.7147   28.8258   35.5431 C.2         1 MOL       0.2274
      3 N24        39.1291   29.3954   34.4925 N.am        1 MOL      -0.2370
      4 C26        39.4869   30.4798   33.7323 C.ar        1 MOL       0.0536
      5 C27        40.7651   31.0900   33.7039 C.ar        1 MOL      -0.0255
      6 C29        40.9791   32.3174   33.0352 C.ar        1 MOL       0.0259
      7 C32        39.9100   32.9014   32.3227 C.ar        1 MOL      -0.0595
      8 C30        38.6750   32.2407   32.2270 C.ar        1 MOL      -0.0865
      9 C28        38.4655   31.0401   32.9293 C.ar        1 MOL      -0.0544
     10 N31        42.1825   32.9466   33.1229 N.pl3       1 MOL      -0.3075
     11 C33        43.3759   32.3537   32.5690 C.3         1 MOL       0.0499
     12 C35        44.0670   33.3928   31.6455 C.3         1 MOL       0.0673
     13 O37        44.2819   34.6380   32.3466 O.3         1 MOL      -0.3759
     14 C36        43.0651   35.2258   32.8537 C.3         1 MOL       0.0673
     15 C34        42.3117   34.2324   33.7714 C.3         1 MOL       0.0499
     16 C19        39.0954   27.7395   36.1412 C.ar        1 MOL       0.0497
     17 C23        37.7420   27.7928   36.5361 C.ar        1 MOL      -0.0479
     18 C20        37.1209   26.6778   37.1207 C.ar        1 MOL      -0.0536
     19 C18        37.8156   25.4551   37.2853 C.ar        1 MOL      -0.0326
     20 C21        37.0757   24.2884   37.8391 C.3         1 MOL      -0.0276
     21 C15        39.1811   25.3814   36.8746 C.ar        1 MOL      -0.0123
     22 C17        39.8044   26.5354   36.3404 C.ar        1 MOL      -0.0399
     23 C12        39.9521   24.1854   36.8995 C.ar        1 MOL      -0.0269
     24 C9         40.2782   23.5481   38.1238 C.ar        1 MOL      -0.0647
     25 C4         41.0873   22.3916   38.1435 C.ar        1 MOL      -0.0614
     26 C1         41.5993   21.8984   36.9289 C.ar        1 MOL       0.0282
     27 C3         41.3004   22.5314   35.7300 C.ar        1 MOL       0.1528
     28 O8         41.9352   21.8753   34.7347 O.3         1 MOL      -0.1790
     29 C7         40.4759   23.6652   35.6873 C.ar        1 MOL      -0.0179
     30 C2         42.4389   20.8386   36.5922 C.2         1 MOL       0.0534
     31 N6         42.6085   20.8786   35.2526 N.2         1 MOL      -0.1500
     32 C5         43.0763   19.8510   37.5005 C.3         1 MOL       0.0120
     33 C10        44.6231   20.0299   37.5212 C.3         1 MOL       0.0001
     34 C13        45.2963   18.9613   38.4208 C.3         1 MOL      -0.0317
     35 N16        44.8766   17.5953   38.0308 N.4         1 MOL       0.2272
     36 C14        43.4109   17.3820   38.0512 C.3         1 MOL      -0.0317
     37 C11        42.6893   18.3907   37.1226 C.3         1 MOL       0.0001
     38 H1         38.2903   28.9841   34.2398 H           1 MOL       0.2248
     39 H2         41.5419   30.6761   34.2132 H           1 MOL       0.0391
     40 H3         40.0401   33.7889   31.8300 H           1 MOL       0.0393
     41 H4         37.9160   32.6444   31.6677 H           1 MOL       0.0546
     42 H5         37.5411   30.5981   32.8800 H           1 MOL       0.0398
     43 H6         43.1663   31.4530   31.9798 H           1 MOL       0.0536
     44 H7         44.0523   32.0774   33.3737 H           1 MOL       0.0536
     45 H8         43.4520   33.5696   30.7560 H           1 MOL       0.0579
     46 H9         45.0331   33.0070   31.3154 H           1 MOL       0.0579
     47 H10        42.4187   35.5238   32.0222 H           1 MOL       0.0579
     48 H11        43.3219   36.1218   33.4196 H           1 MOL       0.0579
     49 H12        42.8909   34.1047   34.6909 H           1 MOL       0.0536
     50 H13        41.3498   34.6618   34.0608 H           1 MOL       0.0536
     51 H14        37.1977   28.6489   36.4044 H           1 MOL       0.0652
     52 H15        36.1394   26.7652   37.4086 H           1 MOL       0.0569
     53 H16        36.0104   24.4982   37.9810 H           1 MOL       0.0406
     54 H17        37.4967   24.0127   38.8070 H           1 MOL       0.0406
     55 H18        37.1590   23.4420   37.1501 H           1 MOL       0.0406
     56 H19        40.7849   26.4882   36.0463 H           1 MOL       0.0658
     57 H20        39.9606   23.9388   39.0130 H           1 MOL       0.0538
     58 H21        41.3225   21.9483   39.0320 H           1 MOL       0.0598
     59 H22        40.2843   24.1110   34.7851 H           1 MOL       0.0568
     60 H23        42.7111   20.0319   38.5166 H           1 MOL       0.0460
     61 H24        44.8709   21.0252   37.8993 H           1 MOL       0.0340
     62 H25        45.0248   19.9402   36.5081 H           1 MOL       0.0340
     63 H26        45.0437   19.1408   39.4698 H           1 MOL       0.0815
     64 H27        46.3811   19.0312   38.3195 H           1 MOL       0.0815
     65 H28        45.3179   16.9239   38.6625 H           1 MOL       0.2013
     66 H29        45.2138   17.4150   37.0815 H           1 MOL       0.2013
     67 H30        43.0398   17.4885   39.0743 H           1 MOL       0.0815
     68 H31        43.2004   16.3636   37.7175 H           1 MOL       0.0815
     69 H32        42.9706   18.1797   36.0871 H           1 MOL       0.0340
     70 H33        41.6085   18.2539   37.2164 H           1 MOL       0.0340
@<TRIPOS>BOND
     1     1     2   2
     2     2     3  am
     3     2    16   1
     4     3     4   1
     5     4     5  ar
     6     4     9  ar
     7     5     6  ar
     8     6     7  ar
     9     6    10   1
    10     7     8  ar
    11     8     9  ar
    12    10    11   1
    13    10    15   1
    14    11    12   1
    15    12    13   1
    16    13    14   1
    17    14    15   1
    18    16    17  ar
    19    16    22  ar
    20    17    18  ar
    21    18    19  ar
    22    19    20   1
    23    19    21  ar
    24    21    22  ar
    25    21    23   1
    26    23    24  ar
    27    23    29  ar
    28    24    25  ar
    29    25    26  ar
    30    26    27  ar
    31    26    30   1
    32    27    28   1
    33    27    29  ar
    34    28    31   1
    35    30    31   2
    36    30    32   1
    37    32    33   1
    38    32    37   1
    39    33    34   1
    40    34    35   1
    41    35    36   1
    42    36    37   1
    43     3    38   1
    44     5    39   1
    45     7    40   1
    46     8    41   1
    47     9    42   1
    48    11    43   1
    49    11    44   1
    50    12    45   1
    51    12    46   1
    52    14    47   1
    53    14    48   1
    54    15    49   1
    55    15    50   1
    56    17    51   1
    57    18    52   1
    58    20    53   1
    59    20    54   1
    60    20    55   1
    61    22    56   1
    62    24    57   1
    63    25    58   1
    64    29    59   1
    65    32    60   1
    66    33    61   1
    67    33    62   1
    68    34    63   1
    69    34    64   1
    70    35    65   1
    71    35    66   1
    72    36    67   1
    73    36    68   1
    74    37    69   1
    75    37    70   1
@<TRIPOS>SUBSTRUCTURE
     1  MOL      2

