@<TRIPOS>MOLECULE
3e93_ligand_063
    70    75
SMALL
GAST_HUCK
****
This file was generated by PARSER (from files_GN.cpp)

@<TRIPOS>ATOM
      1 O25        40.5514   22.6917   38.7137 O.2         1 MOL      -0.3760
      2 C22        40.3755   23.2698   37.6449 C.2         1 MOL       0.2274
      3 N24        41.0122   22.9388   36.5291 N.am        1 MOL      -0.2370
      4 C26        41.9850   22.0040   36.2583 C.ar        1 MOL       0.0536
      5 C27        42.5834   21.1115   37.1841 C.ar        1 MOL      -0.0255
      6 C29        43.6193   20.1943   36.8361 C.ar        1 MOL       0.0259
      7 C32        44.0254   20.2110   35.4734 C.ar        1 MOL      -0.0595
      8 C30        43.4344   21.0604   34.5283 C.ar        1 MOL      -0.0865
      9 C28        42.4218   21.9506   34.9198 C.ar        1 MOL      -0.0544
     10 N31        44.1897   19.3406   37.7602 N.pl3       1 MOL      -0.3075
     11 C33        44.2274   19.6048   39.1935 C.3         1 MOL       0.0499
     12 C35        43.4959   18.4722   39.9542 C.3         1 MOL       0.0673
     13 O37        44.1033   17.2093   39.6237 O.3         1 MOL      -0.3759
     14 C36        44.0931   16.9185   38.2091 C.3         1 MOL       0.0673
     15 C34        44.7811   18.0530   37.4060 C.3         1 MOL       0.0499
     16 C19        39.4367   24.2967   37.6209 C.ar        1 MOL       0.0497
     17 C23        38.1753   24.1381   38.2355 C.ar        1 MOL      -0.0479
     18 C20        37.2119   25.1499   38.1609 C.ar        1 MOL      -0.0536
     19 C18        37.4683   26.3695   37.4833 C.ar        1 MOL      -0.0326
     20 C21        36.3509   27.3503   37.4067 C.3         1 MOL      -0.0276
     21 C15        38.7570   26.5759   36.8874 C.ar        1 MOL      -0.0123
     22 C17        39.7065   25.5269   36.9697 C.ar        1 MOL      -0.0399
     23 C12        39.1442   27.7666   36.1768 C.ar        1 MOL      -0.0269
     24 C9         39.7987   27.6790   34.9141 C.ar        1 MOL      -0.0647
     25 C4         40.1963   28.8288   34.1971 C.ar        1 MOL      -0.0614
     26 C1         39.8815   30.0903   34.7232 C.ar        1 MOL       0.0282
     27 C3         39.2534   30.2002   35.9588 C.ar        1 MOL       0.1528
     28 O8         39.0527   31.5102   36.2057 O.3         1 MOL      -0.1790
     29 C7         38.9301   29.0579   36.7180 C.ar        1 MOL      -0.0179
     30 C2         40.0661   31.3900   34.2717 C.2         1 MOL       0.0534
     31 N6         39.5275   32.2041   35.1989 N.2         1 MOL      -0.1500
     32 C5         40.7710   31.8536   33.0510 C.3         1 MOL       0.0120
     33 C10        41.6831   33.0769   33.3682 C.3         1 MOL       0.0001
     34 C13        42.3772   33.6029   32.0870 C.3         1 MOL      -0.0317
     35 N16        41.3756   33.8813   31.0361 N.4         1 MOL       0.2272
     36 C14        40.5243   32.7278   30.6658 C.3         1 MOL      -0.0317
     37 C11        39.7725   32.1758   31.9041 C.3         1 MOL       0.0001
     38 H1         40.7339   23.4553   35.7543 H           1 MOL       0.2248
     39 H2         42.2177   21.0850   38.1276 H           1 MOL       0.0391
     40 H3         44.8036   19.6312   35.1540 H           1 MOL       0.0393
     41 H4         43.7488   21.0472   33.5526 H           1 MOL       0.0546
     42 H5         42.0113   22.5640   34.2109 H           1 MOL       0.0398
     43 H6         43.8165   20.5663   39.4959 H           1 MOL       0.0536
     44 H7         45.2697   19.6105   39.5219 H           1 MOL       0.0536
     45 H8         42.4316   18.4681   39.7067 H           1 MOL       0.0579
     46 H9         43.5988   18.6325   41.0294 H           1 MOL       0.0579
     47 H10        43.0626   16.7821   37.8637 H           1 MOL       0.0579
     48 H11        44.6269   15.9784   38.0505 H           1 MOL       0.0579
     49 H12        45.8482   18.0641   37.6500 H           1 MOL       0.0536
     50 H13        44.6879   17.7968   36.3507 H           1 MOL       0.0536
     51 H14        37.9351   23.2621   38.7110 H           1 MOL       0.0652
     52 H15        36.3025   24.9744   38.6000 H           1 MOL       0.0569
     53 H16        35.4029   26.9280   37.7572 H           1 MOL       0.0406
     54 H17        36.2034   27.6884   36.3775 H           1 MOL       0.0406
     55 H18        36.5799   28.2194   38.0333 H           1 MOL       0.0406
     56 H19        40.6348   25.6603   36.5614 H           1 MOL       0.0658
     57 H20        39.9891   26.7688   34.4883 H           1 MOL       0.0538
     58 H21        40.6790   28.7422   33.3012 H           1 MOL       0.0598
     59 H22        38.5242   29.1643   37.6555 H           1 MOL       0.0568
     60 H23        41.4243   31.0481   32.6949 H           1 MOL       0.0460
     61 H24        42.4485   32.7919   34.0941 H           1 MOL       0.0340
     62 H25        41.0936   33.8924   33.7995 H           1 MOL       0.0340
     63 H26        43.1057   32.8741   31.7258 H           1 MOL       0.0815
     64 H27        42.9100   34.5285   32.3145 H           1 MOL       0.0815
     65 H28        41.8724   34.1925   30.2003 H           1 MOL       0.2013
     66 H29        40.7680   34.6374   31.3664 H           1 MOL       0.2013
     67 H30        41.1427   31.9413   30.2276 H           1 MOL       0.0815
     68 H31        39.8025   33.0515   29.9136 H           1 MOL       0.0815
     69 H32        39.0415   32.9197   32.2322 H           1 MOL       0.0340
     70 H33        39.2301   31.2691   31.6181 H           1 MOL       0.0340
@<TRIPOS>BOND
     1     1     2   2
     2     2     3  am
     3     2    16   1
     4     3     4   1
     5     4     5  ar
     6     4     9  ar
     7     5     6  ar
     8     6     7  ar
     9     6    10   1
    10     7     8  ar
    11     8     9  ar
    12    10    11   1
    13    10    15   1
    14    11    12   1
    15    12    13   1
    16    13    14   1
    17    14    15   1
    18    16    17  ar
    19    16    22  ar
    20    17    18  ar
    21    18    19  ar
    22    19    20   1
    23    19    21  ar
    24    21    22  ar
    25    21    23   1
    26    23    24  ar
    27    23    29  ar
    28    24    25  ar
    29    25    26  ar
    30    26    27  ar
    31    26    30   1
    32    27    28   1
    33    27    29  ar
    34    28    31   1
    35    30    31   2
    36    30    32   1
    37    32    33   1
    38    32    37   1
    39    33    34   1
    40    34    35   1
    41    35    36   1
    42    36    37   1
    43     3    38   1
    44     5    39   1
    45     7    40   1
    46     8    41   1
    47     9    42   1
    48    11    43   1
    49    11    44   1
    50    12    45   1
    51    12    46   1
    52    14    47   1
    53    14    48   1
    54    15    49   1
    55    15    50   1
    56    17    51   1
    57    18    52   1
    58    20    53   1
    59    20    54   1
    60    20    55   1
    61    22    56   1
    62    24    57   1
    63    25    58   1
    64    29    59   1
    65    32    60   1
    66    33    61   1
    67    33    62   1
    68    34    63   1
    69    34    64   1
    70    35    65   1
    71    35    66   1
    72    36    67   1
    73    36    68   1
    74    37    69   1
    75    37    70   1
@<TRIPOS>SUBSTRUCTURE
     1  MOL      2

