@<TRIPOS>MOLECULE
3e93_ligand_021
    70    75
SMALL
GAST_HUCK
****
This file was generated by PARSER (from files_GN.cpp)

@<TRIPOS>ATOM
      1 O25        41.8652   20.0508   35.3183 O.2         1 MOL      -0.3760
      2 C22        42.0510   21.0900   35.9388 C.2         1 MOL       0.2274
      3 N24        43.2721   21.6061   36.0947 N.am        1 MOL      -0.2370
      4 C26        44.5065   21.1577   35.7021 C.ar        1 MOL       0.0536
      5 C27        44.8187   19.8339   35.3047 C.ar        1 MOL      -0.0255
      6 C29        46.1335   19.4340   34.9591 C.ar        1 MOL       0.0259
      7 C32        47.1583   20.4084   35.0527 C.ar        1 MOL      -0.0595
      8 C30        46.8733   21.7295   35.4390 C.ar        1 MOL      -0.0865
      9 C28        45.5584   22.0959   35.7634 C.ar        1 MOL      -0.0544
     10 N31        46.4023   18.1500   34.5475 N.pl3       1 MOL      -0.3075
     11 C33        47.6207   17.4536   34.9167 C.3         1 MOL       0.0499
     12 C35        47.2643   16.0702   35.5262 C.3         1 MOL       0.0673
     13 O37        46.3713   15.3321   34.6652 O.3         1 MOL      -0.3759
     14 C36        45.1546   16.0367   34.3516 C.3         1 MOL       0.0673
     15 C34        45.4893   17.3993   33.7015 C.3         1 MOL       0.0499
     16 C19        40.9273   21.7574   36.4363 C.ar        1 MOL       0.0497
     17 C23        39.7866   21.0522   36.8865 C.ar        1 MOL      -0.0479
     18 C20        38.6374   21.7367   37.3244 C.ar        1 MOL      -0.0536
     19 C18        38.5743   23.1506   37.3116 C.ar        1 MOL      -0.0326
     20 C21        37.2967   23.8229   37.6850 C.3         1 MOL      -0.0276
     21 C15        39.7161   23.8823   36.8614 C.ar        1 MOL      -0.0123
     22 C17        40.8688   23.1690   36.4504 C.ar        1 MOL      -0.0399
     23 C12        39.7253   25.2956   36.6855 C.ar        1 MOL      -0.0269
     24 C9         39.9530   25.8344   35.3935 C.ar        1 MOL      -0.0647
     25 C4         39.9618   27.2230   35.1766 C.ar        1 MOL      -0.0614
     26 C1         39.6933   28.0987   36.2490 C.ar        1 MOL       0.0282
     27 C3         39.5134   27.5687   37.5241 C.ar        1 MOL       0.1528
     28 O8         39.3030   28.5817   38.3932 O.3         1 MOL      -0.1790
     29 C7         39.5404   26.1855   37.7720 C.ar        1 MOL      -0.0179
     30 C2         39.5394   29.4825   36.4011 C.2         1 MOL       0.0534
     31 N6         39.3210   29.7024   37.7178 N.2         1 MOL      -0.1500
     32 C5         39.5782   30.6124   35.4261 C.3         1 MOL       0.0120
     33 C10        39.1437   30.2466   33.9693 C.3         1 MOL       0.0001
     34 C13        39.2925   31.4386   32.9896 C.3         1 MOL      -0.0317
     35 N16        40.6574   32.0043   33.0693 N.4         1 MOL       0.2272
     36 C14        41.0271   32.4813   34.4197 C.3         1 MOL      -0.0317
     37 C11        40.9629   31.3248   35.4512 C.3         1 MOL       0.0001
     38 H1         43.3003   22.4632   36.5521 H           1 MOL       0.2248
     39 H2         44.0925   19.1216   35.3467 H           1 MOL       0.0391
     40 H3         48.1193   20.1852   34.7885 H           1 MOL       0.0393
     41 H4         47.6199   22.4240   35.4866 H           1 MOL       0.0546
     42 H5         45.3780   23.0612   36.0494 H           1 MOL       0.0398
     43 H6         48.2159   17.9956   35.6569 H           1 MOL       0.0536
     44 H7         48.2407   17.3100   34.0291 H           1 MOL       0.0536
     45 H8         46.8025   16.1982   36.5097 H           1 MOL       0.0579
     46 H9         48.1757   15.4839   35.6573 H           1 MOL       0.0579
     47 H10        44.5499   16.1759   35.2522 H           1 MOL       0.0579
     48 H11        44.5798   15.4317   33.6470 H           1 MOL       0.0579
     49 H12        45.9873   17.2097   32.7480 H           1 MOL       0.0536
     50 H13        44.5651   17.9275   33.4601 H           1 MOL       0.0536
     51 H14        39.7822   20.0276   36.8890 H           1 MOL       0.0652
     52 H15        37.8318   21.1790   37.6255 H           1 MOL       0.0569
     53 H16        36.4942   23.1167   37.9047 H           1 MOL       0.0406
     54 H17        36.9614   24.4628   36.8669 H           1 MOL       0.0406
     55 H18        37.4381   24.4339   38.5745 H           1 MOL       0.0406
     56 H19        41.6687   23.6977   36.0844 H           1 MOL       0.0658
     57 H20        40.1231   25.2188   34.5909 H           1 MOL       0.0538
     58 H21        40.1860   27.5468   34.2521 H           1 MOL       0.0598
     59 H22        39.4105   25.8448   38.7293 H           1 MOL       0.0568
     60 H23        38.8484   31.3514   35.7809 H           1 MOL       0.0460
     61 H24        38.1113   29.8883   33.9729 H           1 MOL       0.0340
     62 H25        39.7685   29.4697   33.5533 H           1 MOL       0.0340
     63 H26        38.5514   32.2027   33.2126 H           1 MOL       0.0815
     64 H27        39.1264   31.0888   31.9694 H           1 MOL       0.0815
     65 H28        40.7361   32.7792   32.4076 H           1 MOL       0.2013
     66 H29        41.3187   31.2809   32.7873 H           1 MOL       0.2013
     67 H30        40.3675   33.2963   34.7221 H           1 MOL       0.0815
     68 H31        42.0447   32.8784   34.3801 H           1 MOL       0.0815
     69 H32        41.7487   30.6009   35.2228 H           1 MOL       0.0340
     70 H33        41.1631   31.7284   36.4487 H           1 MOL       0.0340
@<TRIPOS>BOND
     1     1     2   2
     2     2     3  am
     3     2    16   1
     4     3     4   1
     5     4     5  ar
     6     4     9  ar
     7     5     6  ar
     8     6     7  ar
     9     6    10   1
    10     7     8  ar
    11     8     9  ar
    12    10    11   1
    13    10    15   1
    14    11    12   1
    15    12    13   1
    16    13    14   1
    17    14    15   1
    18    16    17  ar
    19    16    22  ar
    20    17    18  ar
    21    18    19  ar
    22    19    20   1
    23    19    21  ar
    24    21    22  ar
    25    21    23   1
    26    23    24  ar
    27    23    29  ar
    28    24    25  ar
    29    25    26  ar
    30    26    27  ar
    31    26    30   1
    32    27    28   1
    33    27    29  ar
    34    28    31   1
    35    30    31   2
    36    30    32   1
    37    32    33   1
    38    32    37   1
    39    33    34   1
    40    34    35   1
    41    35    36   1
    42    36    37   1
    43     3    38   1
    44     5    39   1
    45     7    40   1
    46     8    41   1
    47     9    42   1
    48    11    43   1
    49    11    44   1
    50    12    45   1
    51    12    46   1
    52    14    47   1
    53    14    48   1
    54    15    49   1
    55    15    50   1
    56    17    51   1
    57    18    52   1
    58    20    53   1
    59    20    54   1
    60    20    55   1
    61    22    56   1
    62    24    57   1
    63    25    58   1
    64    29    59   1
    65    32    60   1
    66    33    61   1
    67    33    62   1
    68    34    63   1
    69    34    64   1
    70    35    65   1
    71    35    66   1
    72    36    67   1
    73    36    68   1
    74    37    69   1
    75    37    70   1
@<TRIPOS>SUBSTRUCTURE
     1  MOL      2

