@<TRIPOS>MOLECULE
3e93_ligand_037
    70    75
SMALL
GAST_HUCK
****
This file was generated by PARSER (from files_GN.cpp)

@<TRIPOS>ATOM
      1 O25        36.4502   20.1281   35.8790 O.2         1 MOL      -0.3760
      2 C22        37.1341   20.1578   36.8917 C.2         1 MOL       0.2274
      3 N24        37.8070   21.2554   37.2387 N.am        1 MOL      -0.2370
      4 C26        38.0103   22.4472   36.5639 C.ar        1 MOL       0.0536
      5 C27        38.5793   23.5285   37.2861 C.ar        1 MOL      -0.0255
      6 C29        38.8917   24.8069   36.7162 C.ar        1 MOL       0.0259
      7 C32        38.6275   24.9010   35.3180 C.ar        1 MOL      -0.0595
      8 C30        38.0646   23.8576   34.5713 C.ar        1 MOL      -0.0865
      9 C28        37.7524   22.6443   35.1900 C.ar        1 MOL      -0.0544
     10 N31        39.4045   25.8837   37.4476 N.pl3       1 MOL      -0.3075
     11 C33        39.6793   25.8571   38.8881 C.3         1 MOL       0.0499
     12 C35        38.8116   26.9248   39.6035 C.3         1 MOL       0.0673
     13 O37        39.0320   28.2341   39.0451 O.3         1 MOL      -0.3759
     14 C36        38.8261   28.2877   37.6208 C.3         1 MOL       0.0673
     15 C34        39.6836   27.2172   36.8952 C.3         1 MOL       0.0499
     16 C19        37.1149   19.0105   37.6887 C.ar        1 MOL       0.0497
     17 C23        37.1295   17.7331   37.0824 C.ar        1 MOL      -0.0479
     18 C20        37.0175   16.5654   37.8567 C.ar        1 MOL      -0.0536
     19 C18        36.8450   16.6363   39.2560 C.ar        1 MOL      -0.0326
     20 C21        36.7499   15.3712   40.0325 C.3         1 MOL      -0.0276
     21 C15        36.7899   17.9142   39.8797 C.ar        1 MOL      -0.0123
     22 C17        36.9853   19.0801   39.0947 C.ar        1 MOL      -0.0399
     23 C12        36.5162   18.0666   41.2689 C.ar        1 MOL      -0.0269
     24 C9         35.2366   17.7477   41.7968 C.ar        1 MOL      -0.0647
     25 C4         34.9545   17.8999   43.1669 C.ar        1 MOL      -0.0614
     26 C1         35.9476   18.4162   44.0238 C.ar        1 MOL       0.0282
     27 C3         37.2066   18.7165   43.5126 C.ar        1 MOL       0.1528
     28 O8         37.9817   19.1662   44.5215 O.3         1 MOL      -0.1790
     29 C7         37.5177   18.5438   42.1531 C.ar        1 MOL      -0.0179
     30 C2         36.0082   18.7412   45.3838 C.2         1 MOL       0.0534
     31 N6         37.2644   19.1779   45.6136 N.2         1 MOL      -0.1500
     32 C5         34.9392   18.6154   46.4275 C.3         1 MOL       0.0120
     33 C10        33.6518   19.4350   46.0950 C.3         1 MOL       0.0001
     34 C13        32.5943   19.2845   47.2173 C.3         1 MOL      -0.0317
     35 N16        33.1476   19.7391   48.5126 N.4         1 MOL       0.2272
     36 C14        34.3542   18.9982   48.9349 C.3         1 MOL      -0.0317
     37 C11        35.4592   19.0263   47.8484 C.3         1 MOL       0.0001
     38 H1         38.2376   21.2083   38.1063 H           1 MOL       0.2248
     39 H2         38.7649   23.3448   38.2662 H           1 MOL       0.0391
     40 H3         38.8465   25.7277   34.7769 H           1 MOL       0.0393
     41 H4         37.8983   23.9735   33.5673 H           1 MOL       0.0546
     42 H5         37.3707   21.9090   34.5992 H           1 MOL       0.0398
     43 H6         40.7329   26.0951   39.0605 H           1 MOL       0.0536
     44 H7         39.5099   24.9170   39.3999 H           1 MOL       0.0536
     45 H8         39.0724   26.9606   40.6638 H           1 MOL       0.0579
     46 H9         37.7563   26.6527   39.5204 H           1 MOL       0.0579
     47 H10        39.1150   29.2827   37.2732 H           1 MOL       0.0579
     48 H11        37.7667   28.1411   37.3857 H           1 MOL       0.0579
     49 H12        39.5111   27.3617   35.8346 H           1 MOL       0.0536
     50 H13        40.7411   27.4555   37.0478 H           1 MOL       0.0536
     51 H14        37.2239   17.6348   36.0661 H           1 MOL       0.0652
     52 H15        37.0440   15.6617   37.3788 H           1 MOL       0.0569
     53 H16        36.9904   14.4933   39.4300 H           1 MOL       0.0406
     54 H17        35.7370   15.2518   40.4167 H           1 MOL       0.0406
     55 H18        37.4495   15.3997   40.8691 H           1 MOL       0.0406
     56 H19        36.9665   19.9967   39.5499 H           1 MOL       0.0658
     57 H20        34.4902   17.4020   41.1869 H           1 MOL       0.0538
     58 H21        34.0341   17.6366   43.5274 H           1 MOL       0.0598
     59 H22        38.4536   18.7630   41.8166 H           1 MOL       0.0568
     60 H23        34.6660   17.5549   46.4669 H           1 MOL       0.0460
     61 H24        33.1962   19.0891   45.1710 H           1 MOL       0.0340
     62 H25        33.9071   20.4948   45.9734 H           1 MOL       0.0340
     63 H26        32.2734   18.2397   47.2940 H           1 MOL       0.0815
     64 H27        31.7178   19.8846   46.9789 H           1 MOL       0.0815
     65 H28        32.4271   19.6344   49.2278 H           1 MOL       0.2013
     66 H29        33.3847   20.7290   48.4264 H           1 MOL       0.2013
     67 H30        34.0867   17.9673   49.1723 H           1 MOL       0.0815
     68 H31        34.7365   19.4681   49.8436 H           1 MOL       0.0815
     69 H32        35.8692   20.0420   47.8030 H           1 MOL       0.0340
     70 H33        36.2624   18.3484   48.1513 H           1 MOL       0.0340
@<TRIPOS>BOND
     1     1     2   2
     2     2     3  am
     3     2    16   1
     4     3     4   1
     5     4     5  ar
     6     4     9  ar
     7     5     6  ar
     8     6     7  ar
     9     6    10   1
    10     7     8  ar
    11     8     9  ar
    12    10    11   1
    13    10    15   1
    14    11    12   1
    15    12    13   1
    16    13    14   1
    17    14    15   1
    18    16    17  ar
    19    16    22  ar
    20    17    18  ar
    21    18    19  ar
    22    19    20   1
    23    19    21  ar
    24    21    22  ar
    25    21    23   1
    26    23    24  ar
    27    23    29  ar
    28    24    25  ar
    29    25    26  ar
    30    26    27  ar
    31    26    30   1
    32    27    28   1
    33    27    29  ar
    34    28    31   1
    35    30    31   2
    36    30    32   1
    37    32    33   1
    38    32    37   1
    39    33    34   1
    40    34    35   1
    41    35    36   1
    42    36    37   1
    43     3    38   1
    44     5    39   1
    45     7    40   1
    46     8    41   1
    47     9    42   1
    48    11    43   1
    49    11    44   1
    50    12    45   1
    51    12    46   1
    52    14    47   1
    53    14    48   1
    54    15    49   1
    55    15    50   1
    56    17    51   1
    57    18    52   1
    58    20    53   1
    59    20    54   1
    60    20    55   1
    61    22    56   1
    62    24    57   1
    63    25    58   1
    64    29    59   1
    65    32    60   1
    66    33    61   1
    67    33    62   1
    68    34    63   1
    69    34    64   1
    70    35    65   1
    71    35    66   1
    72    36    67   1
    73    36    68   1
    74    37    69   1
    75    37    70   1
@<TRIPOS>SUBSTRUCTURE
     1  MOL      2

