@<TRIPOS>MOLECULE
3e93_ligand_019
    70    75
SMALL
GAST_HUCK
****
This file was generated by PARSER (from files_GN.cpp)

@<TRIPOS>ATOM
      1 O25        39.4345   23.9903   37.0858 O.2         1 MOL      -0.3760
      2 C22        38.6098   23.5948   37.9224 C.2         1 MOL       0.2274
      3 N24        37.9211   24.4863   38.6443 N.am        1 MOL      -0.2370
      4 C26        38.0616   25.8366   38.5724 C.ar        1 MOL       0.0536
      5 C27        38.5486   26.5524   39.6936 C.ar        1 MOL      -0.0255
      6 C29        38.8546   27.9359   39.6115 C.ar        1 MOL       0.0259
      7 C32        38.6045   28.5987   38.3850 C.ar        1 MOL      -0.0595
      8 C30        38.0567   27.9162   37.2880 C.ar        1 MOL      -0.0865
      9 C28        37.7924   26.5423   37.3782 C.ar        1 MOL      -0.0544
     10 N31        39.4315   28.5983   40.6646 N.pl3       1 MOL      -0.3075
     11 C33        39.0845   28.3327   42.0477 C.3         1 MOL       0.0499
     12 C35        40.3230   27.7941   42.8042 C.3         1 MOL       0.0673
     13 O37        41.4476   28.6750   42.6246 O.3         1 MOL      -0.3759
     14 C36        41.7744   28.9002   41.2341 C.3         1 MOL       0.0673
     15 C34        40.5657   29.4884   40.4647 C.3         1 MOL       0.0499
     16 C19        38.4404   22.2195   38.0896 C.ar        1 MOL       0.0497
     17 C23        38.7075   21.3401   37.0110 C.ar        1 MOL      -0.0479
     18 C20        38.4874   19.9608   37.1170 C.ar        1 MOL      -0.0536
     19 C18        38.0044   19.3856   38.3086 C.ar        1 MOL      -0.0326
     20 C21        37.6531   17.9337   38.3163 C.3         1 MOL      -0.0276
     21 C15        37.7993   20.2279   39.4389 C.ar        1 MOL      -0.0123
     22 C17        37.9768   21.6340   39.2968 C.ar        1 MOL      -0.0399
     23 C12        37.4090   19.7164   40.7053 C.ar        1 MOL      -0.0269
     24 C9         36.1996   20.1509   41.3027 C.ar        1 MOL      -0.0647
     25 C4         35.8037   19.6696   42.5621 C.ar        1 MOL      -0.0614
     26 C1         36.6186   18.7488   43.2504 C.ar        1 MOL       0.0282
     27 C3         37.8081   18.3230   42.6642 C.ar        1 MOL       0.1528
     28 O8         38.4120   17.4413   43.4855 O.3         1 MOL      -0.1790
     29 C7         38.2276   18.7966   41.4104 C.ar        1 MOL      -0.0179
     30 C2         36.5562   18.0863   44.4809 C.2         1 MOL       0.0534
     31 N6         37.6642   17.3090   44.5470 N.2         1 MOL      -0.1500
     32 C5         35.5720   18.1086   45.6028 C.3         1 MOL       0.0120
     33 C10        34.2868   18.9682   45.3980 C.3         1 MOL       0.0001
     34 C13        33.3530   18.9099   46.6352 C.3         1 MOL      -0.0317
     35 N16        34.0777   19.3236   47.8567 N.4         1 MOL       0.2272
     36 C14        35.3046   18.5382   48.1300 C.3         1 MOL      -0.0317
     37 C11        36.2798   18.5449   46.9243 C.3         1 MOL       0.0001
     38 H1         37.3578   24.1500   39.3643 H           1 MOL       0.2248
     39 H2         38.7652   26.0365   40.5497 H           1 MOL       0.0391
     40 H3         38.7913   29.6004   38.2918 H           1 MOL       0.0393
     41 H4         37.8628   28.4160   36.4145 H           1 MOL       0.0546
     42 H5         37.4121   26.0472   36.5692 H           1 MOL       0.0398
     43 H6         38.2442   27.6418   42.1660 H           1 MOL       0.0536
     44 H7         38.7721   29.2770   42.5113 H           1 MOL       0.0536
     45 H8         40.5740   26.7881   42.4454 H           1 MOL       0.0579
     46 H9         40.0991   27.7248   43.8721 H           1 MOL       0.0579
     47 H10        42.0960   27.9632   40.7682 H           1 MOL       0.0579
     48 H11        42.6105   29.5989   41.1884 H           1 MOL       0.0579
     49 H12        40.3208   30.4798   40.8470 H           1 MOL       0.0536
     50 H13        40.8678   29.5958   39.4181 H           1 MOL       0.0536
     51 H14        39.0472   21.7034   36.1190 H           1 MOL       0.0652
     52 H15        38.6679   19.3822   36.2938 H           1 MOL       0.0569
     53 H16        37.7344   17.4761   37.3283 H           1 MOL       0.0406
     54 H17        36.6246   17.7902   38.6556 H           1 MOL       0.0406
     55 H18        38.3234   17.3970   38.9826 H           1 MOL       0.0406
     56 H19        37.7958   22.2334   40.1064 H           1 MOL       0.0658
     57 H20        35.5930   20.8274   40.8327 H           1 MOL       0.0538
     58 H21        34.9259   20.0065   42.9409 H           1 MOL       0.0598
     59 H22        39.1239   18.4783   41.0360 H           1 MOL       0.0568
     60 H23        35.2423   17.0737   45.7285 H           1 MOL       0.0460
     61 H24        33.7329   18.6210   44.5193 H           1 MOL       0.0340
     62 H25        34.5761   20.0109   45.2601 H           1 MOL       0.0340
     63 H26        32.9663   17.8966   46.7606 H           1 MOL       0.0815
     64 H27        32.5047   19.5872   46.4882 H           1 MOL       0.0815
     65 H28        33.4496   19.2318   48.6599 H           1 MOL       0.2013
     66 H29        34.3320   20.3099   47.7575 H           1 MOL       0.2013
     67 H30        35.0328   17.5080   48.3803 H           1 MOL       0.0815
     68 H31        35.8065   18.9691   48.9997 H           1 MOL       0.0815
     69 H32        36.7002   19.5490   46.8028 H           1 MOL       0.0340
     70 H33        37.1022   17.8603   47.1489 H           1 MOL       0.0340
@<TRIPOS>BOND
     1     1     2   2
     2     2     3  am
     3     2    16   1
     4     3     4   1
     5     4     5  ar
     6     4     9  ar
     7     5     6  ar
     8     6     7  ar
     9     6    10   1
    10     7     8  ar
    11     8     9  ar
    12    10    11   1
    13    10    15   1
    14    11    12   1
    15    12    13   1
    16    13    14   1
    17    14    15   1
    18    16    17  ar
    19    16    22  ar
    20    17    18  ar
    21    18    19  ar
    22    19    20   1
    23    19    21  ar
    24    21    22  ar
    25    21    23   1
    26    23    24  ar
    27    23    29  ar
    28    24    25  ar
    29    25    26  ar
    30    26    27  ar
    31    26    30   1
    32    27    28   1
    33    27    29  ar
    34    28    31   1
    35    30    31   2
    36    30    32   1
    37    32    33   1
    38    32    37   1
    39    33    34   1
    40    34    35   1
    41    35    36   1
    42    36    37   1
    43     3    38   1
    44     5    39   1
    45     7    40   1
    46     8    41   1
    47     9    42   1
    48    11    43   1
    49    11    44   1
    50    12    45   1
    51    12    46   1
    52    14    47   1
    53    14    48   1
    54    15    49   1
    55    15    50   1
    56    17    51   1
    57    18    52   1
    58    20    53   1
    59    20    54   1
    60    20    55   1
    61    22    56   1
    62    24    57   1
    63    25    58   1
    64    29    59   1
    65    32    60   1
    66    33    61   1
    67    33    62   1
    68    34    63   1
    69    34    64   1
    70    35    65   1
    71    35    66   1
    72    36    67   1
    73    36    68   1
    74    37    69   1
    75    37    70   1
@<TRIPOS>SUBSTRUCTURE
     1  MOL      2

