@<TRIPOS>MOLECULE
3e93_ligand_022
    70    75
SMALL
GAST_HUCK
****
This file was generated by PARSER (from files_GN.cpp)

@<TRIPOS>ATOM
      1 O25        39.3001   22.8375   41.6105 O.2         1 MOL      -0.3760
      2 C22        40.2163   23.4431   41.0648 C.2         1 MOL       0.2274
      3 N24        41.1344   22.7803   40.3543 N.am        1 MOL      -0.2370
      4 C26        41.2813   21.4212   40.1325 C.ar        1 MOL       0.0536
      5 C27        42.1063   21.0265   39.0471 C.ar        1 MOL      -0.0255
      6 C29        42.2799   19.6661   38.6655 C.ar        1 MOL       0.0259
      7 C32        41.5922   18.6925   39.4335 C.ar        1 MOL      -0.0595
      8 C30        40.8238   19.0492   40.5509 C.ar        1 MOL      -0.0865
      9 C28        40.6831   20.3982   40.9064 C.ar        1 MOL      -0.0544
     10 N31        43.0893   19.3031   37.6144 N.pl3       1 MOL      -0.3075
     11 C33        44.3857   19.9198   37.3965 C.3         1 MOL       0.0499
     12 C35        45.4807   18.8201   37.4144 C.3         1 MOL       0.0673
     13 O37        45.1689   17.7444   36.5075 O.3         1 MOL      -0.3759
     14 C36        43.8788   17.1432   36.7411 C.3         1 MOL       0.0673
     15 C34        42.7681   18.2211   36.6954 C.3         1 MOL       0.0499
     16 C19        40.1452   24.8401   41.1109 C.ar        1 MOL       0.0497
     17 C23        39.7140   25.4785   42.2950 C.ar        1 MOL      -0.0479
     18 C20        39.3964   26.8397   42.3025 C.ar        1 MOL      -0.0536
     19 C18        39.4882   27.6323   41.1356 C.ar        1 MOL      -0.0326
     20 C21        38.9344   29.0165   41.2427 C.3         1 MOL      -0.0276
     21 C15        40.0089   27.0454   39.9306 C.ar        1 MOL      -0.0123
     22 C17        40.3526   25.6570   39.9711 C.ar        1 MOL      -0.0399
     23 C12        40.0959   27.7561   38.6691 C.ar        1 MOL      -0.0269
     24 C9         40.4147   29.1456   38.5908 C.ar        1 MOL      -0.0647
     25 C4         40.3986   29.8461   37.3634 C.ar        1 MOL      -0.0614
     26 C1         40.1913   29.1417   36.1622 C.ar        1 MOL       0.0282
     27 C3         39.9753   27.7733   36.2155 C.ar        1 MOL       0.1528
     28 O8         39.8647   27.3160   34.9496 O.3         1 MOL      -0.1790
     29 C7         39.8803   27.0800   37.4337 C.ar        1 MOL      -0.0179
     30 C2         40.1456   29.4941   34.8114 C.2         1 MOL       0.0534
     31 N6         39.9742   28.3327   34.1336 N.2         1 MOL      -0.1500
     32 C5         40.1347   30.8593   34.2064 C.3         1 MOL       0.0120
     33 C10        39.9603   30.8348   32.6541 C.3         1 MOL       0.0001
     34 C13        39.8754   32.2635   32.0570 C.3         1 MOL      -0.0317
     35 N16        40.9816   33.1426   32.5034 N.4         1 MOL       0.2272
     36 C14        41.2271   33.1561   33.9623 C.3         1 MOL      -0.0317
     37 C11        41.3869   31.7266   34.5447 C.3         1 MOL       0.0001
     38 H1         41.7747   23.3370   39.8803 H           1 MOL       0.2248
     39 H2         42.5340   21.7545   38.4729 H           1 MOL       0.0391
     40 H3         41.7121   17.6949   39.2396 H           1 MOL       0.0393
     41 H4         40.3711   18.3256   41.1155 H           1 MOL       0.0546
     42 H5         40.1515   20.6100   41.7520 H           1 MOL       0.0398
     43 H6         44.6487   20.6542   38.1630 H           1 MOL       0.0536
     44 H7         44.3914   20.4259   36.4268 H           1 MOL       0.0536
     45 H8         45.5944   18.4272   38.4296 H           1 MOL       0.0579
     46 H9         46.4364   19.2503   37.1133 H           1 MOL       0.0579
     47 H10        43.8648   16.6336   37.7097 H           1 MOL       0.0579
     48 H11        43.7001   16.3961   35.9660 H           1 MOL       0.0579
     49 H12        42.7273   18.6302   35.6814 H           1 MOL       0.0536
     50 H13        41.7986   17.7550   36.8795 H           1 MOL       0.0536
     51 H14        39.5552   24.9387   43.1475 H           1 MOL       0.0652
     52 H15        39.0381   27.2319   43.1784 H           1 MOL       0.0569
     53 H16        38.3402   29.1517   42.1595 H           1 MOL       0.0406
     54 H17        38.2855   29.2319   40.3817 H           1 MOL       0.0406
     55 H18        39.7627   29.7275   41.2796 H           1 MOL       0.0406
     56 H19        40.6965   25.1993   39.1197 H           1 MOL       0.0658
     57 H20        40.7083   29.6519   39.4389 H           1 MOL       0.0538
     58 H21        40.6080   30.8412   37.3481 H           1 MOL       0.0598
     59 H22        39.6359   26.0870   37.4019 H           1 MOL       0.0568
     60 H23        39.2548   31.3571   34.6300 H           1 MOL       0.0460
     61 H24        39.0435   30.2971   32.3946 H           1 MOL       0.0340
     62 H25        40.8019   30.3068   32.1952 H           1 MOL       0.0340
     63 H26        38.9230   32.7228   32.3310 H           1 MOL       0.0815
     64 H27        39.9095   32.1973   30.9647 H           1 MOL       0.0815
     65 H28        40.7513   34.1019   32.2284 H           1 MOL       0.2013
     66 H29        41.8409   32.8558   32.0276 H           1 MOL       0.2013
     67 H30        40.3943   33.6693   34.4573 H           1 MOL       0.0815
     68 H31        42.1353   33.7327   34.1565 H           1 MOL       0.0815
     69 H32        42.2906   31.2607   34.1371 H           1 MOL       0.0340
     70 H33        41.5174   31.8170   35.6223 H           1 MOL       0.0340
@<TRIPOS>BOND
     1     1     2   2
     2     2     3  am
     3     2    16   1
     4     3     4   1
     5     4     5  ar
     6     4     9  ar
     7     5     6  ar
     8     6     7  ar
     9     6    10   1
    10     7     8  ar
    11     8     9  ar
    12    10    11   1
    13    10    15   1
    14    11    12   1
    15    12    13   1
    16    13    14   1
    17    14    15   1
    18    16    17  ar
    19    16    22  ar
    20    17    18  ar
    21    18    19  ar
    22    19    20   1
    23    19    21  ar
    24    21    22  ar
    25    21    23   1
    26    23    24  ar
    27    23    29  ar
    28    24    25  ar
    29    25    26  ar
    30    26    27  ar
    31    26    30   1
    32    27    28   1
    33    27    29  ar
    34    28    31   1
    35    30    31   2
    36    30    32   1
    37    32    33   1
    38    32    37   1
    39    33    34   1
    40    34    35   1
    41    35    36   1
    42    36    37   1
    43     3    38   1
    44     5    39   1
    45     7    40   1
    46     8    41   1
    47     9    42   1
    48    11    43   1
    49    11    44   1
    50    12    45   1
    51    12    46   1
    52    14    47   1
    53    14    48   1
    54    15    49   1
    55    15    50   1
    56    17    51   1
    57    18    52   1
    58    20    53   1
    59    20    54   1
    60    20    55   1
    61    22    56   1
    62    24    57   1
    63    25    58   1
    64    29    59   1
    65    32    60   1
    66    33    61   1
    67    33    62   1
    68    34    63   1
    69    34    64   1
    70    35    65   1
    71    35    66   1
    72    36    67   1
    73    36    68   1
    74    37    69   1
    75    37    70   1
@<TRIPOS>SUBSTRUCTURE
     1  MOL      2

