@<TRIPOS>MOLECULE
3e93_ligand_074
    70    75
SMALL
GAST_HUCK
****
This file was generated by PARSER (from files_GN.cpp)

@<TRIPOS>ATOM
      1 O25        35.8956   20.7920   45.5444 O.2         1 MOL      -0.3760
      2 C22        35.9387   19.7315   44.9367 C.2         1 MOL       0.2274
      3 N24        35.0409   18.7552   45.0964 N.am        1 MOL      -0.2370
      4 C26        33.9149   18.6856   45.9018 C.ar        1 MOL       0.0536
      5 C27        33.1917   17.4651   45.9143 C.ar        1 MOL      -0.0255
      6 C29        32.0788   17.2418   46.7721 C.ar        1 MOL       0.0259
      7 C32        31.6735   18.3118   47.6071 C.ar        1 MOL      -0.0595
      8 C30        32.3299   19.5476   47.5724 C.ar        1 MOL      -0.0865
      9 C28        33.4314   19.7333   46.7264 C.ar        1 MOL      -0.0544
     10 N31        31.4113   16.0407   46.8011 N.pl3       1 MOL      -0.3075
     11 C33        30.8916   15.4610   48.0271 C.3         1 MOL       0.0499
     12 C35        29.3553   15.3231   47.9187 C.3         1 MOL       0.0673
     13 O37        29.0100   14.5674   46.7390 O.3         1 MOL      -0.3759
     14 C36        29.5385   15.1282   45.5181 C.3         1 MOL       0.0673
     15 C34        31.0819   15.3084   45.5925 C.3         1 MOL       0.0499
     16 C19        36.9878   19.6185   44.0379 C.ar        1 MOL       0.0497
     17 C23        37.9918   18.6432   44.2035 C.ar        1 MOL      -0.0479
     18 C20        39.1231   18.6453   43.3690 C.ar        1 MOL      -0.0536
     19 C18        39.2702   19.5866   42.3223 C.ar        1 MOL      -0.0326
     20 C21        40.4869   19.5501   41.4639 C.3         1 MOL      -0.0276
     21 C15        38.2515   20.5637   42.1379 C.ar        1 MOL      -0.0123
     22 C17        37.1368   20.5767   43.0082 C.ar        1 MOL      -0.0399
     23 C12        38.3134   21.5492   41.1178 C.ar        1 MOL      -0.0269
     24 C9         38.6484   22.8912   41.4369 C.ar        1 MOL      -0.0647
     25 C4         38.7122   23.8797   40.4312 C.ar        1 MOL      -0.0614
     26 C1         38.4342   23.5128   39.1015 C.ar        1 MOL       0.0282
     27 C3         38.0817   22.2052   38.7892 C.ar        1 MOL       0.1528
     28 O8         37.8292   22.1379   37.4653 O.3         1 MOL      -0.1790
     29 C7         38.0151   21.2081   39.7753 C.ar        1 MOL      -0.0179
     30 C2         38.3958   24.2066   37.8953 C.2         1 MOL       0.0534
     31 N6         38.0097   23.3268   36.9474 N.2         1 MOL      -0.1500
     32 C5         38.6451   25.6526   37.6679 C.3         1 MOL       0.0120
     33 C10        37.2969   26.4254   37.6260 C.3         1 MOL       0.0001
     34 C13        37.5242   27.9329   37.3543 C.3         1 MOL      -0.0317
     35 N16        38.3538   28.1635   36.1481 N.4         1 MOL       0.2272
     36 C14        39.6541   27.4529   36.1477 C.3         1 MOL      -0.0317
     37 C11        39.4674   25.9300   36.3731 C.3         1 MOL       0.0001
     38 H1         35.1996   17.9640   44.5548 H           1 MOL       0.2248
     39 H2         33.5267   16.6945   45.3294 H           1 MOL       0.0391
     40 H3         30.8510   18.2296   48.2057 H           1 MOL       0.0393
     41 H4         32.0056   20.3197   48.1583 H           1 MOL       0.0546
     42 H5         33.8632   20.6517   46.7361 H           1 MOL       0.0398
     43 H6         31.1490   16.0234   48.9276 H           1 MOL       0.0536
     44 H7         31.3253   14.4639   48.1543 H           1 MOL       0.0536
     45 H8         28.8914   16.3131   47.8857 H           1 MOL       0.0579
     46 H9         28.9708   14.7971   48.7948 H           1 MOL       0.0579
     47 H10        29.0574   16.0914   45.3213 H           1 MOL       0.0579
     48 H11        29.2888   14.4551   44.6960 H           1 MOL       0.0579
     49 H12        31.5644   14.3271   45.6154 H           1 MOL       0.0536
     50 H13        31.4003   15.8156   44.6784 H           1 MOL       0.0536
     51 H14        37.9340   17.9565   44.9613 H           1 MOL       0.0652
     52 H15        39.8511   17.9532   43.5424 H           1 MOL       0.0569
     53 H16        41.2055   18.7944   41.7811 H           1 MOL       0.0406
     54 H17        40.9914   20.5180   41.4892 H           1 MOL       0.0406
     55 H18        40.2080   19.3241   40.4339 H           1 MOL       0.0406
     56 H19        36.4118   21.2911   42.8828 H           1 MOL       0.0658
     57 H20        38.8516   23.1564   42.4042 H           1 MOL       0.0538
     58 H21        38.9486   24.8439   40.6705 H           1 MOL       0.0598
     59 H22        37.7465   20.2568   39.5131 H           1 MOL       0.0568
     60 H23        39.2272   26.0348   38.5127 H           1 MOL       0.0460
     61 H24        36.7727   26.3135   38.5792 H           1 MOL       0.0340
     62 H25        36.6567   26.0167   36.8385 H           1 MOL       0.0340
     63 H26        38.0043   28.4009   38.2180 H           1 MOL       0.0815
     64 H27        36.5545   28.4093   37.2080 H           1 MOL       0.0815
     65 H28        38.5324   29.1668   36.0628 H           1 MOL       0.2013
     66 H29        37.8286   27.8648   35.3250 H           1 MOL       0.2013
     67 H30        40.3011   27.8702   36.9240 H           1 MOL       0.0815
     68 H31        40.1357   27.6202   35.1817 H           1 MOL       0.0815
     69 H32        38.9499   25.5132   35.5036 H           1 MOL       0.0340
     70 H33        40.4489   25.4541   36.4438 H           1 MOL       0.0340
@<TRIPOS>BOND
     1     1     2   2
     2     2     3  am
     3     2    16   1
     4     3     4   1
     5     4     5  ar
     6     4     9  ar
     7     5     6  ar
     8     6     7  ar
     9     6    10   1
    10     7     8  ar
    11     8     9  ar
    12    10    11   1
    13    10    15   1
    14    11    12   1
    15    12    13   1
    16    13    14   1
    17    14    15   1
    18    16    17  ar
    19    16    22  ar
    20    17    18  ar
    21    18    19  ar
    22    19    20   1
    23    19    21  ar
    24    21    22  ar
    25    21    23   1
    26    23    24  ar
    27    23    29  ar
    28    24    25  ar
    29    25    26  ar
    30    26    27  ar
    31    26    30   1
    32    27    28   1
    33    27    29  ar
    34    28    31   1
    35    30    31   2
    36    30    32   1
    37    32    33   1
    38    32    37   1
    39    33    34   1
    40    34    35   1
    41    35    36   1
    42    36    37   1
    43     3    38   1
    44     5    39   1
    45     7    40   1
    46     8    41   1
    47     9    42   1
    48    11    43   1
    49    11    44   1
    50    12    45   1
    51    12    46   1
    52    14    47   1
    53    14    48   1
    54    15    49   1
    55    15    50   1
    56    17    51   1
    57    18    52   1
    58    20    53   1
    59    20    54   1
    60    20    55   1
    61    22    56   1
    62    24    57   1
    63    25    58   1
    64    29    59   1
    65    32    60   1
    66    33    61   1
    67    33    62   1
    68    34    63   1
    69    34    64   1
    70    35    65   1
    71    35    66   1
    72    36    67   1
    73    36    68   1
    74    37    69   1
    75    37    70   1
@<TRIPOS>SUBSTRUCTURE
     1  MOL      2

