@<TRIPOS>MOLECULE
3e93_ligand_050
    70    75
SMALL
GAST_HUCK
****
This file was generated by PARSER (from files_GN.cpp)

@<TRIPOS>ATOM
      1 O25        40.5961   17.7733   38.4402 O.2         1 MOL      -0.3760
      2 C22        40.9126   18.9054   38.0888 C.2         1 MOL       0.2274
      3 N24        42.1898   19.2534   37.9511 N.am        1 MOL      -0.2370
      4 C26        43.3028   18.4507   37.9951 C.ar        1 MOL       0.0536
      5 C27        43.3143   17.0954   37.5916 C.ar        1 MOL      -0.0255
      6 C29        44.4652   16.2798   37.7123 C.ar        1 MOL       0.0259
      7 C32        45.6469   16.8827   38.2055 C.ar        1 MOL      -0.0595
      8 C30        45.6869   18.2549   38.5083 C.ar        1 MOL      -0.0865
      9 C28        44.5178   19.0310   38.4083 C.ar        1 MOL      -0.0544
     10 N31        44.4319   14.9522   37.3707 N.pl3       1 MOL      -0.3075
     11 C33        45.0010   13.9336   38.2259 C.3         1 MOL       0.0499
     12 C35        43.8795   12.9238   38.6091 C.3         1 MOL       0.0673
     13 O37        43.1781   12.4399   37.4426 O.3         1 MOL      -0.3759
     14 C36        42.6185   13.4833   36.6205 C.3         1 MOL       0.0673
     15 C34        43.7317   14.4717   36.1982 C.3         1 MOL       0.0499
     16 C19        39.8819   19.8159   37.8648 C.ar        1 MOL       0.0497
     17 C23        38.7411   19.4202   37.1364 C.ar        1 MOL      -0.0479
     18 C20        37.6756   20.3077   36.9128 C.ar        1 MOL      -0.0536
     19 C18        37.6968   21.6190   37.4435 C.ar        1 MOL      -0.0326
     20 C21        36.5067   22.4934   37.2483 C.3         1 MOL      -0.0276
     21 C15        38.8397   22.0302   38.1923 C.ar        1 MOL      -0.0123
     22 C17        39.9200   21.1350   38.3785 C.ar        1 MOL      -0.0399
     23 C12        38.9144   23.3035   38.8169 C.ar        1 MOL      -0.0269
     24 C9         39.1222   24.4789   38.0485 C.ar        1 MOL      -0.0647
     25 C4         39.1801   25.7453   38.6658 C.ar        1 MOL      -0.0614
     26 C1         39.0342   25.8239   40.0628 C.ar        1 MOL       0.0282
     27 C3         38.8405   24.6755   40.8215 C.ar        1 MOL       0.1528
     28 O8         38.7138   25.0416   42.1138 O.3         1 MOL      -0.1790
     29 C7         38.7852   23.4082   40.2245 C.ar        1 MOL      -0.0179
     30 C2         39.0181   26.8812   40.9659 C.2         1 MOL       0.0534
     31 N6         38.8180   26.3457   42.1873 N.2         1 MOL      -0.1500
     32 C5         39.1825   28.3270   40.6416 C.3         1 MOL       0.0120
     33 C10        40.6673   28.6802   40.3237 C.3         1 MOL       0.0001
     34 C13        41.5217   28.7846   41.6120 C.3         1 MOL      -0.0317
     35 N16        40.9239   29.7474   42.5642 N.4         1 MOL       0.2272
     36 C14        39.5371   29.4226   42.9696 C.3         1 MOL      -0.0317
     37 C11        38.6106   29.2896   41.7321 C.3         1 MOL       0.0001
     38 H1         42.3673   20.1970   37.8122 H           1 MOL       0.2248
     39 H2         42.4533   16.6847   37.2322 H           1 MOL       0.0391
     40 H3         46.5118   16.3444   38.2794 H           1 MOL       0.0393
     41 H4         46.5638   18.6877   38.8076 H           1 MOL       0.0546
     42 H5         44.5609   20.0210   38.6544 H           1 MOL       0.0398
     43 H6         45.4217   14.3420   39.1489 H           1 MOL       0.0536
     44 H7         45.8024   13.4109   37.6990 H           1 MOL       0.0536
     45 H8         43.1680   13.3939   39.2945 H           1 MOL       0.0579
     46 H9         44.3212   12.0654   39.1163 H           1 MOL       0.0579
     47 H10        41.8212   14.0092   37.1556 H           1 MOL       0.0579
     48 H11        42.1814   13.0272   35.7282 H           1 MOL       0.0579
     49 H12        44.4421   13.9413   35.5567 H           1 MOL       0.0536
     50 H13        43.3084   15.2708   35.5893 H           1 MOL       0.0536
     51 H14        38.6713   18.4737   36.7531 H           1 MOL       0.0652
     52 H15        36.8712   19.9764   36.3756 H           1 MOL       0.0569
     53 H16        35.7088   22.0052   36.6841 H           1 MOL       0.0406
     54 H17        36.7882   23.3960   36.7058 H           1 MOL       0.0406
     55 H18        36.1006   22.7744   38.2205 H           1 MOL       0.0406
     56 H19        40.7298   21.4317   38.9336 H           1 MOL       0.0658
     57 H20        39.2306   24.4202   37.0326 H           1 MOL       0.0538
     58 H21        39.3152   26.5890   38.1054 H           1 MOL       0.0598
     59 H22        38.6366   22.5807   40.8099 H           1 MOL       0.0568
     60 H23        38.6007   28.5093   39.7321 H           1 MOL       0.0460
     61 H24        40.7030   29.6450   39.8099 H           1 MOL       0.0340
     62 H25        41.1116   27.9393   39.6522 H           1 MOL       0.0340
     63 H26        42.5262   29.1235   41.3508 H           1 MOL       0.0815
     64 H27        41.6070   27.8041   42.0861 H           1 MOL       0.0815
     65 H28        40.9200   30.6718   42.1298 H           1 MOL       0.2013
     66 H29        41.5106   29.7860   43.3997 H           1 MOL       0.2013
     67 H30        39.1650   30.2215   43.6125 H           1 MOL       0.0815
     68 H31        39.5338   28.5036   43.5592 H           1 MOL       0.0815
     69 H32        37.6201   28.9554   42.0515 H           1 MOL       0.0340
     70 H33        38.4911   30.2835   41.2912 H           1 MOL       0.0340
@<TRIPOS>BOND
     1     1     2   2
     2     2     3  am
     3     2    16   1
     4     3     4   1
     5     4     5  ar
     6     4     9  ar
     7     5     6  ar
     8     6     7  ar
     9     6    10   1
    10     7     8  ar
    11     8     9  ar
    12    10    11   1
    13    10    15   1
    14    11    12   1
    15    12    13   1
    16    13    14   1
    17    14    15   1
    18    16    17  ar
    19    16    22  ar
    20    17    18  ar
    21    18    19  ar
    22    19    20   1
    23    19    21  ar
    24    21    22  ar
    25    21    23   1
    26    23    24  ar
    27    23    29  ar
    28    24    25  ar
    29    25    26  ar
    30    26    27  ar
    31    26    30   1
    32    27    28   1
    33    27    29  ar
    34    28    31   1
    35    30    31   2
    36    30    32   1
    37    32    33   1
    38    32    37   1
    39    33    34   1
    40    34    35   1
    41    35    36   1
    42    36    37   1
    43     3    38   1
    44     5    39   1
    45     7    40   1
    46     8    41   1
    47     9    42   1
    48    11    43   1
    49    11    44   1
    50    12    45   1
    51    12    46   1
    52    14    47   1
    53    14    48   1
    54    15    49   1
    55    15    50   1
    56    17    51   1
    57    18    52   1
    58    20    53   1
    59    20    54   1
    60    20    55   1
    61    22    56   1
    62    24    57   1
    63    25    58   1
    64    29    59   1
    65    32    60   1
    66    33    61   1
    67    33    62   1
    68    34    63   1
    69    34    64   1
    70    35    65   1
    71    35    66   1
    72    36    67   1
    73    36    68   1
    74    37    69   1
    75    37    70   1
@<TRIPOS>SUBSTRUCTURE
     1  MOL      2

