@<TRIPOS>MOLECULE
3e93_ligand_010
    70    75
SMALL
GAST_HUCK
****
This file was generated by PARSER (from files_GN.cpp)

@<TRIPOS>ATOM
      1 O25        40.7879   29.6322   35.7188 O.2         1 MOL      -0.3760
      2 C22        40.1026   28.9637   34.9534 C.2         1 MOL       0.2274
      3 N24        39.6649   29.4172   33.7797 N.am        1 MOL      -0.2370
      4 C26        39.9228   30.6263   33.1858 C.ar        1 MOL       0.0536
      5 C27        41.1702   31.3056   33.2463 C.ar        1 MOL      -0.0255
      6 C29        41.3284   32.5992   32.6964 C.ar        1 MOL       0.0259
      7 C32        40.2331   33.1984   32.0346 C.ar        1 MOL      -0.0595
      8 C30        39.0159   32.5013   31.8987 C.ar        1 MOL      -0.0865
      9 C28        38.8655   31.2270   32.4692 C.ar        1 MOL      -0.0544
     10 N31        42.5114   33.2716   32.8259 N.pl3       1 MOL      -0.3075
     11 C33        43.7000   32.8549   32.1241 C.3         1 MOL       0.0499
     12 C35        44.2637   34.0576   31.3186 C.3         1 MOL       0.0673
     13 O37        44.4029   35.2410   32.1398 O.3         1 MOL      -0.3759
     14 C36        43.1955   35.6214   32.8208 C.3         1 MOL       0.0673
     15 C34        42.6255   34.4452   33.6556 C.3         1 MOL       0.0499
     16 C19        39.6332   27.7433   35.3964 C.ar        1 MOL       0.0497
     17 C23        38.7153   27.6605   36.4642 C.ar        1 MOL      -0.0479
     18 C20        38.2171   26.4132   36.8827 C.ar        1 MOL      -0.0536
     19 C18        38.6520   25.2108   36.2722 C.ar        1 MOL      -0.0326
     20 C21        38.0880   23.9159   36.7365 C.3         1 MOL      -0.0276
     21 C15        39.6180   25.2809   35.2283 C.ar        1 MOL      -0.0123
     22 C17        40.0700   26.5454   34.7842 C.ar        1 MOL      -0.0399
     23 C12        40.2071   24.1255   34.6461 C.ar        1 MOL      -0.0269
     24 C9         41.1570   23.3681   35.3843 C.ar        1 MOL      -0.0647
     25 C4         41.8367   22.2736   34.7908 C.ar        1 MOL      -0.0614
     26 C1         41.5691   21.9448   33.4491 C.ar        1 MOL       0.0282
     27 C3         40.6041   22.6728   32.7505 C.ar        1 MOL       0.1528
     28 O8         40.4952   22.1721   31.5088 O.3         1 MOL      -0.1790
     29 C7         39.9168   23.7601   33.3119 C.ar        1 MOL      -0.0179
     30 C2         42.0427   20.9866   32.5449 C.2         1 MOL       0.0534
     31 N6         41.3428   21.1797   31.4037 N.2         1 MOL      -0.1500
     32 C5         43.0693   19.9003   32.7019 C.3         1 MOL       0.0120
     33 C10        44.5105   20.4472   32.9435 C.3         1 MOL       0.0001
     34 C13        45.5736   19.3056   32.9747 C.3         1 MOL      -0.0317
     35 N16        45.5099   18.4853   31.7481 N.4         1 MOL       0.2272
     36 C14        44.1927   17.8619   31.5267 C.3         1 MOL      -0.0317
     37 C11        43.0828   18.9423   31.4582 C.3         1 MOL       0.0001
     38 H1         38.9705   28.8782   33.3632 H           1 MOL       0.2248
     39 H2         41.9622   30.8695   33.7215 H           1 MOL       0.0391
     40 H3         40.3313   34.1225   31.6104 H           1 MOL       0.0393
     41 H4         38.2332   32.9314   31.3966 H           1 MOL       0.0546
     42 H5         37.9629   30.7490   32.3818 H           1 MOL       0.0398
     43 H6         43.5195   32.0185   31.4465 H           1 MOL       0.0536
     44 H7         44.4477   32.5371   32.8569 H           1 MOL       0.0536
     45 H8         43.6057   34.2783   30.4754 H           1 MOL       0.0579
     46 H9         45.2470   33.8031   30.9168 H           1 MOL       0.0579
     47 H10        42.4578   35.9577   32.0899 H           1 MOL       0.0579
     48 H11        43.4290   36.4541   33.4841 H           1 MOL       0.0579
     49 H12        43.3307   34.2348   34.4648 H           1 MOL       0.0536
     50 H13        41.6779   34.7376   34.1136 H           1 MOL       0.0536
     51 H14        38.3848   28.5118   36.9287 H           1 MOL       0.0652
     52 H15        37.5308   26.3925   37.6424 H           1 MOL       0.0569
     53 H16        37.2835   24.0413   37.4642 H           1 MOL       0.0406
     54 H17        38.8669   23.3097   37.2011 H           1 MOL       0.0406
     55 H18        37.6776   23.3697   35.8871 H           1 MOL       0.0406
     56 H19        40.7463   26.5983   34.0155 H           1 MOL       0.0658
     57 H20        41.3713   23.6313   36.3469 H           1 MOL       0.0538
     58 H21        42.5180   21.7374   35.3324 H           1 MOL       0.0598
     59 H22        39.2398   24.2859   32.7492 H           1 MOL       0.0568
     60 H23        42.7774   19.3066   33.5717 H           1 MOL       0.0460
     61 H24        44.5510   20.9942   33.8937 H           1 MOL       0.0340
     62 H25        44.7826   21.1375   32.1425 H           1 MOL       0.0340
     63 H26        45.4172   18.6693   33.8468 H           1 MOL       0.0815
     64 H27        46.5740   19.7343   33.0500 H           1 MOL       0.0815
     65 H28        46.2252   17.7500   31.7783 H           1 MOL       0.2013
     66 H29        45.7239   19.0854   30.9477 H           1 MOL       0.2013
     67 H30        43.9753   17.1485   32.3250 H           1 MOL       0.0815
     68 H31        44.2206   17.3141   30.5825 H           1 MOL       0.0815
     69 H32        43.2492   19.5243   30.5485 H           1 MOL       0.0340
     70 H33        42.1141   18.4468   31.3657 H           1 MOL       0.0340
@<TRIPOS>BOND
     1     1     2   2
     2     2     3  am
     3     2    16   1
     4     3     4   1
     5     4     5  ar
     6     4     9  ar
     7     5     6  ar
     8     6     7  ar
     9     6    10   1
    10     7     8  ar
    11     8     9  ar
    12    10    11   1
    13    10    15   1
    14    11    12   1
    15    12    13   1
    16    13    14   1
    17    14    15   1
    18    16    17  ar
    19    16    22  ar
    20    17    18  ar
    21    18    19  ar
    22    19    20   1
    23    19    21  ar
    24    21    22  ar
    25    21    23   1
    26    23    24  ar
    27    23    29  ar
    28    24    25  ar
    29    25    26  ar
    30    26    27  ar
    31    26    30   1
    32    27    28   1
    33    27    29  ar
    34    28    31   1
    35    30    31   2
    36    30    32   1
    37    32    33   1
    38    32    37   1
    39    33    34   1
    40    34    35   1
    41    35    36   1
    42    36    37   1
    43     3    38   1
    44     5    39   1
    45     7    40   1
    46     8    41   1
    47     9    42   1
    48    11    43   1
    49    11    44   1
    50    12    45   1
    51    12    46   1
    52    14    47   1
    53    14    48   1
    54    15    49   1
    55    15    50   1
    56    17    51   1
    57    18    52   1
    58    20    53   1
    59    20    54   1
    60    20    55   1
    61    22    56   1
    62    24    57   1
    63    25    58   1
    64    29    59   1
    65    32    60   1
    66    33    61   1
    67    33    62   1
    68    34    63   1
    69    34    64   1
    70    35    65   1
    71    35    66   1
    72    36    67   1
    73    36    68   1
    74    37    69   1
    75    37    70   1
@<TRIPOS>SUBSTRUCTURE
     1  MOL      2

