@<TRIPOS>MOLECULE
3e93_ligand_040
    70    75
SMALL
GAST_HUCK
****
This file was generated by PARSER (from files_GN.cpp)

@<TRIPOS>ATOM
      1 O25        39.2899   18.4823   42.5752 O.2         1 MOL      -0.3760
      2 C22        38.3998   18.9590   41.8900 C.2         1 MOL       0.2274
      3 N24        38.6553   19.7054   40.8223 N.am        1 MOL      -0.2370
      4 C26        39.8525   20.1113   40.2818 C.ar        1 MOL       0.0536
      5 C27        39.7807   20.7451   39.0136 C.ar        1 MOL      -0.0255
      6 C29        40.9200   21.1758   38.2747 C.ar        1 MOL       0.0259
      7 C32        42.1740   20.9348   38.9051 C.ar        1 MOL      -0.0595
      8 C30        42.2803   20.3452   40.1810 C.ar        1 MOL      -0.0865
      9 C28        41.1289   19.9350   40.8580 C.ar        1 MOL      -0.0544
     10 N31        40.8111   21.7834   37.0204 N.pl3       1 MOL      -0.3075
     11 C33        39.5248   22.2613   36.5382 C.3         1 MOL       0.0499
     12 C35        39.5745   23.2011   35.3134 C.3         1 MOL       0.0673
     13 O37        40.3965   22.6140   34.3015 O.3         1 MOL      -0.3759
     14 C36        41.7649   22.5071   34.7251 C.3         1 MOL       0.0673
     15 C34        41.9337   21.7745   36.0863 C.3         1 MOL       0.0499
     16 C19        37.0948   18.6359   42.2461 C.ar        1 MOL       0.0497
     17 C23        36.1308   18.2204   41.3022 C.ar        1 MOL      -0.0479
     18 C20        34.8796   17.7340   41.7230 C.ar        1 MOL      -0.0536
     19 C18        34.5455   17.6651   43.0947 C.ar        1 MOL      -0.0326
     20 C21        33.3013   16.9645   43.5034 C.3         1 MOL      -0.0276
     21 C15        35.4539   18.2066   44.0475 C.ar        1 MOL      -0.0123
     22 C17        36.7203   18.6575   43.6083 C.ar        1 MOL      -0.0399
     23 C12        35.1595   18.3294   45.4384 C.ar        1 MOL      -0.0269
     24 C9         36.0240   17.7708   46.4209 C.ar        1 MOL      -0.0647
     25 C4         35.8172   18.0070   47.7958 C.ar        1 MOL      -0.0614
     26 C1         34.7273   18.8080   48.1811 C.ar        1 MOL       0.0282
     27 C3         33.8676   19.3452   47.2317 C.ar        1 MOL       0.1528
     28 O8         32.9185   20.0604   47.8710 O.3         1 MOL      -0.1790
     29 C7         34.0685   19.1293   45.8612 C.ar        1 MOL      -0.0179
     30 C2         34.2497   19.2564   49.4090 C.2         1 MOL       0.0534
     31 N6         33.1521   20.0027   49.1573 N.2         1 MOL      -0.1500
     32 C5         34.8447   19.0018   50.7463 C.3         1 MOL       0.0120
     33 C10        33.7985   19.1214   51.8967 C.3         1 MOL       0.0001
     34 C13        34.4579   18.9751   53.2909 C.3         1 MOL      -0.0317
     35 N16        35.5758   19.9322   53.4420 N.4         1 MOL       0.2272
     36 C14        36.6342   19.7792   52.4174 C.3         1 MOL      -0.0317
     37 C11        36.0510   19.9593   50.9940 C.3         1 MOL       0.0001
     38 H1         37.8697   20.0084   40.3395 H           1 MOL       0.2248
     39 H2         38.8478   20.8475   38.6064 H           1 MOL       0.0391
     40 H3         43.0507   21.2071   38.4670 H           1 MOL       0.0393
     41 H4         43.1996   20.2237   40.6130 H           1 MOL       0.0546
     42 H5         41.2549   19.5133   41.7715 H           1 MOL       0.0398
     43 H6         38.9954   22.8193   37.3139 H           1 MOL       0.0536
     44 H7         38.9282   21.3917   36.2643 H           1 MOL       0.0536
     45 H8         39.9479   24.1866   35.6041 H           1 MOL       0.0579
     46 H9         38.5706   23.3309   34.9141 H           1 MOL       0.0579
     47 H10        42.1905   23.5126   34.7898 H           1 MOL       0.0579
     48 H11        42.3165   21.9765   33.9503 H           1 MOL       0.0579
     49 H12        42.1789   20.7307   35.8744 H           1 MOL       0.0536
     50 H13        42.8026   22.2376   36.5482 H           1 MOL       0.0536
     51 H14        36.3481   18.2078   40.3036 H           1 MOL       0.0652
     52 H15        34.2269   17.3820   41.0148 H           1 MOL       0.0569
     53 H16        32.7968   16.4805   42.6684 H           1 MOL       0.0406
     54 H17        32.6028   17.6602   43.9596 H           1 MOL       0.0406
     55 H18        33.5502   16.1867   44.2215 H           1 MOL       0.0406
     56 H19        37.3852   19.0313   44.2977 H           1 MOL       0.0658
     57 H20        36.8311   17.2065   46.1385 H           1 MOL       0.0538
     58 H21        36.4503   17.6080   48.4928 H           1 MOL       0.0598
     59 H22        33.4488   19.5899   45.1927 H           1 MOL       0.0568
     60 H23        35.2108   17.9684   50.7491 H           1 MOL       0.0460
     61 H24        33.0291   18.3523   51.7789 H           1 MOL       0.0340
     62 H25        33.3102   20.0994   51.8505 H           1 MOL       0.0340
     63 H26        34.8218   17.9538   53.4352 H           1 MOL       0.0815
     64 H27        33.7157   19.1831   54.0643 H           1 MOL       0.0815
     65 H28        35.9929   19.8118   54.3671 H           1 MOL       0.2013
     66 H29        35.1908   20.8786   53.3763 H           1 MOL       0.2013
     67 H30        37.1019   18.7954   52.5104 H           1 MOL       0.0815
     68 H31        37.4027   20.5332   52.5924 H           1 MOL       0.0815
     69 H32        35.7251   20.9980   50.8801 H           1 MOL       0.0340
     70 H33        36.8398   19.7689   50.2614 H           1 MOL       0.0340
@<TRIPOS>BOND
     1     1     2   2
     2     2     3  am
     3     2    16   1
     4     3     4   1
     5     4     5  ar
     6     4     9  ar
     7     5     6  ar
     8     6     7  ar
     9     6    10   1
    10     7     8  ar
    11     8     9  ar
    12    10    11   1
    13    10    15   1
    14    11    12   1
    15    12    13   1
    16    13    14   1
    17    14    15   1
    18    16    17  ar
    19    16    22  ar
    20    17    18  ar
    21    18    19  ar
    22    19    20   1
    23    19    21  ar
    24    21    22  ar
    25    21    23   1
    26    23    24  ar
    27    23    29  ar
    28    24    25  ar
    29    25    26  ar
    30    26    27  ar
    31    26    30   1
    32    27    28   1
    33    27    29  ar
    34    28    31   1
    35    30    31   2
    36    30    32   1
    37    32    33   1
    38    32    37   1
    39    33    34   1
    40    34    35   1
    41    35    36   1
    42    36    37   1
    43     3    38   1
    44     5    39   1
    45     7    40   1
    46     8    41   1
    47     9    42   1
    48    11    43   1
    49    11    44   1
    50    12    45   1
    51    12    46   1
    52    14    47   1
    53    14    48   1
    54    15    49   1
    55    15    50   1
    56    17    51   1
    57    18    52   1
    58    20    53   1
    59    20    54   1
    60    20    55   1
    61    22    56   1
    62    24    57   1
    63    25    58   1
    64    29    59   1
    65    32    60   1
    66    33    61   1
    67    33    62   1
    68    34    63   1
    69    34    64   1
    70    35    65   1
    71    35    66   1
    72    36    67   1
    73    36    68   1
    74    37    69   1
    75    37    70   1
@<TRIPOS>SUBSTRUCTURE
     1  MOL      2

