@<TRIPOS>MOLECULE
3e93_ligand_065
    70    75
SMALL
GAST_HUCK
****
This file was generated by PARSER (from files_GN.cpp)

@<TRIPOS>ATOM
      1 O25        40.7578   24.4589   35.5801 O.2         1 MOL      -0.3760
      2 C22        40.1491   24.0435   36.5567 C.2         1 MOL       0.2274
      3 N24        39.7171   24.8724   37.5008 N.am        1 MOL      -0.2370
      4 C26        39.7032   26.2382   37.5089 C.ar        1 MOL       0.0536
      5 C27        40.0100   26.8933   38.7216 C.ar        1 MOL      -0.0255
      6 C29        39.8460   28.2927   38.8928 C.ar        1 MOL       0.0259
      7 C32        39.3324   29.0146   37.7848 C.ar        1 MOL      -0.0595
      8 C30        39.0566   28.3868   36.5554 C.ar        1 MOL      -0.0865
      9 C28        39.2497   27.0018   36.4154 C.ar        1 MOL      -0.0544
     10 N31        40.1364   28.9068   40.0917 N.pl3       1 MOL      -0.3075
     11 C33        41.2798   28.5487   40.9182 C.3         1 MOL       0.0499
     12 C35        40.8034   28.1230   42.3305 C.3         1 MOL       0.0673
     13 O37        39.9389   29.1270   42.9010 O.3         1 MOL      -0.3759
     14 C36        38.8110   29.4606   42.0665 C.3         1 MOL       0.0673
     15 C34        39.2788   29.9304   40.6647 C.3         1 MOL       0.0499
     16 C19        40.0225   22.6697   36.7526 C.ar        1 MOL       0.0497
     17 C23        38.8194   22.1337   37.2698 C.ar        1 MOL      -0.0479
     18 C20        38.6884   20.7588   37.5158 C.ar        1 MOL      -0.0536
     19 C18        39.7725   19.8746   37.3082 C.ar        1 MOL      -0.0326
     20 C21        39.5668   18.4411   37.6488 C.3         1 MOL      -0.0276
     21 C15        41.0057   20.4064   36.8317 C.ar        1 MOL      -0.0123
     22 C17        41.0980   21.7804   36.5098 C.ar        1 MOL      -0.0399
     23 C12        42.1798   19.6111   36.7627 C.ar        1 MOL      -0.0269
     24 C9         42.8593   19.2334   37.9497 C.ar        1 MOL      -0.0647
     25 C4         43.9758   18.3722   37.9075 C.ar        1 MOL      -0.0614
     26 C1         44.4101   17.8532   36.6640 C.ar        1 MOL       0.0282
     27 C3         43.7471   18.2567   35.5057 C.ar        1 MOL       0.1528
     28 O8         44.3276   17.6700   34.4413 O.3         1 MOL      -0.1790
     29 C7         42.6515   19.1323   35.5210 C.ar        1 MOL      -0.0179
     30 C2         45.4069   16.9656   36.2275 C.2         1 MOL       0.0534
     31 N6         45.2984   16.9191   34.8795 N.2         1 MOL      -0.1500
     32 C5         46.4756   16.1962   36.9491 C.3         1 MOL       0.0120
     33 C10        46.9812   14.9417   36.1530 C.3         1 MOL       0.0001
     34 C13        45.9147   13.8106   36.1410 C.3         1 MOL      -0.0317
     35 N16        45.4591   13.4493   37.5030 N.4         1 MOL       0.2272
     36 C14        45.0160   14.5923   38.3325 C.3         1 MOL      -0.0317
     37 C11        46.1074   15.6918   38.3810 C.3         1 MOL       0.0001
     38 H1         39.4083   24.4545   38.3194 H           1 MOL       0.2248
     39 H2         40.3004   26.3230   39.5187 H           1 MOL       0.0391
     40 H3         39.1945   30.0253   37.8413 H           1 MOL       0.0393
     41 H4         38.6916   28.9326   35.7706 H           1 MOL       0.0546
     42 H5         38.9988   26.5526   35.5302 H           1 MOL       0.0398
     43 H6         41.9209   29.4287   41.0213 H           1 MOL       0.0536
     44 H7         41.9093   27.7657   40.4900 H           1 MOL       0.0536
     45 H8         41.6672   28.0093   42.9879 H           1 MOL       0.0579
     46 H9         40.2833   27.1637   42.2798 H           1 MOL       0.0579
     47 H10        38.2498   30.2623   42.5474 H           1 MOL       0.0579
     48 H11        38.1475   28.5951   41.9697 H           1 MOL       0.0579
     49 H12        38.3800   30.1351   40.0777 H           1 MOL       0.0536
     50 H13        39.8363   30.8662   40.7660 H           1 MOL       0.0536
     51 H14        38.0138   22.7400   37.4601 H           1 MOL       0.0652
     52 H15        37.7945   20.4066   37.8715 H           1 MOL       0.0569
     53 H16        38.5592   18.1173   37.3759 H           1 MOL       0.0406
     54 H17        39.6994   18.3022   38.7233 H           1 MOL       0.0406
     55 H18        40.2656   17.7878   37.1244 H           1 MOL       0.0406
     56 H19        41.9816   22.1564   36.1516 H           1 MOL       0.0658
     57 H20        42.5367   19.5800   38.8598 H           1 MOL       0.0538
     58 H21        44.4431   18.1287   38.7819 H           1 MOL       0.0598
     59 H22        42.1936   19.3783   34.6427 H           1 MOL       0.0568
     60 H23        47.3181   16.8831   37.0536 H           1 MOL       0.0460
     61 H24        47.8912   14.5520   36.6135 H           1 MOL       0.0340
     62 H25        47.2406   15.2088   35.1254 H           1 MOL       0.0340
     63 H26        46.3395   12.9175   35.6806 H           1 MOL       0.0815
     64 H27        45.0495   14.1179   35.5498 H           1 MOL       0.0815
     65 H28        46.2273   12.9808   37.9844 H           1 MOL       0.2013
     66 H29        44.6801   12.7889   37.4196 H           1 MOL       0.2013
     67 H30        44.8232   14.2298   39.3463 H           1 MOL       0.0815
     68 H31        44.0838   15.0018   37.9358 H           1 MOL       0.0815
     69 H32        45.7807   16.5120   39.0191 H           1 MOL       0.0340
     70 H33        47.0001   15.2631   38.8500 H           1 MOL       0.0340
@<TRIPOS>BOND
     1     1     2   2
     2     2     3  am
     3     2    16   1
     4     3     4   1
     5     4     5  ar
     6     4     9  ar
     7     5     6  ar
     8     6     7  ar
     9     6    10   1
    10     7     8  ar
    11     8     9  ar
    12    10    11   1
    13    10    15   1
    14    11    12   1
    15    12    13   1
    16    13    14   1
    17    14    15   1
    18    16    17  ar
    19    16    22  ar
    20    17    18  ar
    21    18    19  ar
    22    19    20   1
    23    19    21  ar
    24    21    22  ar
    25    21    23   1
    26    23    24  ar
    27    23    29  ar
    28    24    25  ar
    29    25    26  ar
    30    26    27  ar
    31    26    30   1
    32    27    28   1
    33    27    29  ar
    34    28    31   1
    35    30    31   2
    36    30    32   1
    37    32    33   1
    38    32    37   1
    39    33    34   1
    40    34    35   1
    41    35    36   1
    42    36    37   1
    43     3    38   1
    44     5    39   1
    45     7    40   1
    46     8    41   1
    47     9    42   1
    48    11    43   1
    49    11    44   1
    50    12    45   1
    51    12    46   1
    52    14    47   1
    53    14    48   1
    54    15    49   1
    55    15    50   1
    56    17    51   1
    57    18    52   1
    58    20    53   1
    59    20    54   1
    60    20    55   1
    61    22    56   1
    62    24    57   1
    63    25    58   1
    64    29    59   1
    65    32    60   1
    66    33    61   1
    67    33    62   1
    68    34    63   1
    69    34    64   1
    70    35    65   1
    71    35    66   1
    72    36    67   1
    73    36    68   1
    74    37    69   1
    75    37    70   1
@<TRIPOS>SUBSTRUCTURE
     1  MOL      2

