@<TRIPOS>MOLECULE
3e93_ligand_032
    70    75
SMALL
GAST_HUCK
****
This file was generated by PARSER (from files_GN.cpp)

@<TRIPOS>ATOM
      1 O25        39.2147   22.8608   39.7170 O.2         1 MOL      -0.3760
      2 C22        38.7591   23.7697   39.0157 C.2         1 MOL       0.2274
      3 N24        37.9762   23.4939   37.9768 N.am        1 MOL      -0.2370
      4 C26        37.6024   22.3006   37.4127 C.ar        1 MOL       0.0536
      5 C27        38.2990   21.0778   37.5538 C.ar        1 MOL      -0.0255
      6 C29        37.8697   19.8483   36.9646 C.ar        1 MOL       0.0259
      7 C32        36.7390   19.9581   36.1059 C.ar        1 MOL      -0.0595
      8 C30        36.0400   21.1607   35.9267 C.ar        1 MOL      -0.0865
      9 C28        36.4635   22.3240   36.5829 C.ar        1 MOL      -0.0544
     10 N31        38.4966   18.6344   37.2156 N.pl3       1 MOL      -0.3075
     11 C33        39.8988   18.5969   37.6245 C.3         1 MOL       0.0499
     12 C35        40.5597   17.2071   37.8309 C.3         1 MOL       0.0673
     13 O37        39.8870   16.1685   37.1036 O.3         1 MOL      -0.3759
     14 C36        38.5070   16.0863   37.4789 C.3         1 MOL       0.0673
     15 C34        37.7686   17.3790   37.0647 C.3         1 MOL       0.0499
     16 C19        39.1434   25.0860   39.3107 C.ar        1 MOL       0.0497
     17 C23        39.6248   25.4374   40.5868 C.ar        1 MOL      -0.0479
     18 C20        40.0689   26.7403   40.8664 C.ar        1 MOL      -0.0536
     19 C18        40.0728   27.7435   39.8650 C.ar        1 MOL      -0.0326
     20 C21        40.6179   29.0788   40.2255 C.3         1 MOL      -0.0276
     21 C15        39.6040   27.4151   38.5552 C.ar        1 MOL      -0.0123
     22 C17        39.1200   26.0986   38.3181 C.ar        1 MOL      -0.0399
     23 C12        39.6487   28.3126   37.4355 C.ar        1 MOL      -0.0269
     24 C9         39.2826   29.6797   37.5547 C.ar        1 MOL      -0.0647
     25 C4         39.3472   30.5599   36.4535 C.ar        1 MOL      -0.0614
     26 C1         39.7153   30.0480   35.2005 C.ar        1 MOL       0.0282
     27 C3         40.0168   28.7053   35.0426 C.ar        1 MOL       0.1528
     28 O8         40.2614   28.4907   33.7263 O.3         1 MOL      -0.1790
     29 C7         40.0154   27.8306   36.1441 C.ar        1 MOL      -0.0179
     30 C2         39.8343   30.6218   33.9393 C.2         1 MOL       0.0534
     31 N6         40.1629   29.6270   33.0856 N.2         1 MOL      -0.1500
     32 C5         39.6407   32.0590   33.6221 C.3         1 MOL       0.0120
     33 C10        39.5179   32.3680   32.0988 C.3         1 MOL       0.0001
     34 C13        40.8854   32.4165   31.3608 C.3         1 MOL      -0.0317
     35 N16        41.8385   33.2997   32.0708 N.4         1 MOL       0.2272
     36 C14        42.0836   32.9016   33.4734 C.3         1 MOL      -0.0317
     37 C11        40.7585   32.9277   34.2802 C.3         1 MOL       0.0001
     38 H1         37.5620   24.2717   37.5690 H           1 MOL       0.2248
     39 H2         39.1564   21.0897   38.0993 H           1 MOL       0.0391
     40 H3         36.3981   19.1541   35.5823 H           1 MOL       0.0393
     41 H4         35.2191   21.1899   35.3156 H           1 MOL       0.0546
     42 H5         35.9390   23.1913   36.4378 H           1 MOL       0.0398
     43 H6         40.0098   19.1332   38.5718 H           1 MOL       0.0536
     44 H7         40.4831   19.1226   36.8652 H           1 MOL       0.0536
     45 H8         40.5793   16.9534   38.8952 H           1 MOL       0.0579
     46 H9         41.5978   17.2381   37.4916 H           1 MOL       0.0579
     47 H10        38.4039   15.9155   38.5545 H           1 MOL       0.0579
     48 H11        38.0643   15.2286   36.9691 H           1 MOL       0.0579
     49 H12        37.4828   17.2607   36.0168 H           1 MOL       0.0536
     50 H13        36.8511   17.4247   37.6580 H           1 MOL       0.0536
     51 H14        39.6531   24.7431   41.3426 H           1 MOL       0.0652
     52 H15        40.3998   26.9395   41.8093 H           1 MOL       0.0569
     53 H16        41.1101   29.0866   41.2060 H           1 MOL       0.0406
     54 H17        39.8098   29.8147   40.2454 H           1 MOL       0.0406
     55 H18        41.3530   29.3847   39.4817 H           1 MOL       0.0406
     56 H19        38.7792   25.8608   37.3832 H           1 MOL       0.0658
     57 H20        38.9479   30.0526   38.4476 H           1 MOL       0.0538
     58 H21        39.0938   31.5419   36.5539 H           1 MOL       0.0598
     59 H22        40.2694   26.8515   35.9962 H           1 MOL       0.0568
     60 H23        38.6828   32.3448   34.0726 H           1 MOL       0.0460
     61 H24        39.0443   33.3453   31.9778 H           1 MOL       0.0340
     62 H25        38.8655   31.6355   31.6155 H           1 MOL       0.0340
     63 H26        40.7333   32.8121   30.3545 H           1 MOL       0.0815
     64 H27        41.3152   31.4168   31.2645 H           1 MOL       0.0815
     65 H28        41.4621   34.2519   32.0689 H           1 MOL       0.2013
     66 H29        42.7285   33.2969   31.5662 H           1 MOL       0.2013
     67 H30        42.7849   33.6099   33.9194 H           1 MOL       0.0815
     68 H31        42.5390   31.9074   33.5068 H           1 MOL       0.0815
     69 H32        40.9603   32.5994   35.3037 H           1 MOL       0.0340
     70 H33        40.4178   33.9637   34.3385 H           1 MOL       0.0340
@<TRIPOS>BOND
     1     1     2   2
     2     2     3  am
     3     2    16   1
     4     3     4   1
     5     4     5  ar
     6     4     9  ar
     7     5     6  ar
     8     6     7  ar
     9     6    10   1
    10     7     8  ar
    11     8     9  ar
    12    10    11   1
    13    10    15   1
    14    11    12   1
    15    12    13   1
    16    13    14   1
    17    14    15   1
    18    16    17  ar
    19    16    22  ar
    20    17    18  ar
    21    18    19  ar
    22    19    20   1
    23    19    21  ar
    24    21    22  ar
    25    21    23   1
    26    23    24  ar
    27    23    29  ar
    28    24    25  ar
    29    25    26  ar
    30    26    27  ar
    31    26    30   1
    32    27    28   1
    33    27    29  ar
    34    28    31   1
    35    30    31   2
    36    30    32   1
    37    32    33   1
    38    32    37   1
    39    33    34   1
    40    34    35   1
    41    35    36   1
    42    36    37   1
    43     3    38   1
    44     5    39   1
    45     7    40   1
    46     8    41   1
    47     9    42   1
    48    11    43   1
    49    11    44   1
    50    12    45   1
    51    12    46   1
    52    14    47   1
    53    14    48   1
    54    15    49   1
    55    15    50   1
    56    17    51   1
    57    18    52   1
    58    20    53   1
    59    20    54   1
    60    20    55   1
    61    22    56   1
    62    24    57   1
    63    25    58   1
    64    29    59   1
    65    32    60   1
    66    33    61   1
    67    33    62   1
    68    34    63   1
    69    34    64   1
    70    35    65   1
    71    35    66   1
    72    36    67   1
    73    36    68   1
    74    37    69   1
    75    37    70   1
@<TRIPOS>SUBSTRUCTURE
     1  MOL      2

