@<TRIPOS>MOLECULE
3e93_ligand_062
    70    75
SMALL
GAST_HUCK
****
This file was generated by PARSER (from files_GN.cpp)

@<TRIPOS>ATOM
      1 O25        33.8369   16.4179   41.6736 O.2         1 MOL      -0.3760
      2 C22        34.5348   15.4543   41.3749 C.2         1 MOL       0.2274
      3 N24        34.9860   14.5866   42.2747 N.am        1 MOL      -0.2370
      4 C26        34.6870   14.5783   43.6080 C.ar        1 MOL       0.0536
      5 C27        33.3638   14.6629   44.0937 C.ar        1 MOL      -0.0255
      6 C29        33.0697   14.7765   45.4776 C.ar        1 MOL       0.0259
      7 C32        34.1761   14.7932   46.3692 C.ar        1 MOL      -0.0595
      8 C30        35.4912   14.6324   45.9075 C.ar        1 MOL      -0.0865
      9 C28        35.7472   14.5235   44.5323 C.ar        1 MOL      -0.0544
     10 N31        31.7733   14.8978   45.9242 N.pl3       1 MOL      -0.3075
     11 C33        31.4801   15.6525   47.1331 C.3         1 MOL       0.0499
     12 C35        29.9851   15.9874   47.3109 C.3         1 MOL       0.0673
     13 O37        29.2179   14.7821   47.1809 O.3         1 MOL      -0.3759
     14 C36        29.3083   14.2275   45.8585 C.3         1 MOL       0.0673
     15 C34        30.7671   13.9796   45.3973 C.3         1 MOL       0.0499
     16 C19        35.0227   15.3908   40.0883 C.ar        1 MOL       0.0497
     17 C23        34.5097   14.4476   39.1734 C.ar        1 MOL      -0.0479
     18 C20        34.9783   14.4172   37.8486 C.ar        1 MOL      -0.0536
     19 C18        35.9953   15.2982   37.4133 C.ar        1 MOL      -0.0326
     20 C21        36.4151   15.2710   35.9864 C.3         1 MOL      -0.0276
     21 C15        36.5503   16.2201   38.3462 C.ar        1 MOL      -0.0123
     22 C17        36.0411   16.2699   39.6661 C.ar        1 MOL      -0.0399
     23 C12        37.6218   17.0872   38.0145 C.ar        1 MOL      -0.0269
     24 C9         37.4201   18.4894   37.9412 C.ar        1 MOL      -0.0647
     25 C4         38.4876   19.3576   37.6353 C.ar        1 MOL      -0.0614
     26 C1         39.7631   18.8063   37.4026 C.ar        1 MOL       0.0282
     27 C3         39.9697   17.4354   37.4854 C.ar        1 MOL       0.1528
     28 O8         41.2770   17.1913   37.2515 O.3         1 MOL      -0.1790
     29 C7         38.9182   16.5579   37.7954 C.ar        1 MOL      -0.0179
     30 C2         41.0064   19.3573   37.1050 C.2         1 MOL       0.0534
     31 N6         41.8822   18.3333   37.0326 N.2         1 MOL      -0.1500
     32 C5         41.3303   20.8031   36.9962 C.3         1 MOL       0.0120
     33 C10        42.3262   21.1576   35.8468 C.3         1 MOL       0.0001
     34 C13        43.8126   20.9085   36.2132 C.3         1 MOL      -0.0317
     35 N16        44.1474   21.5275   37.5127 N.4         1 MOL       0.2272
     36 C14        43.3131   21.0545   38.6397 C.3         1 MOL      -0.0317
     37 C11        41.8168   21.3603   38.3676 C.3         1 MOL       0.0001
     38 H1         35.6996   13.9938   41.9870 H           1 MOL       0.2248
     39 H2         32.6125   14.7196   43.4085 H           1 MOL       0.0391
     40 H3         34.0322   14.8756   47.3774 H           1 MOL       0.0393
     41 H4         36.2670   14.6236   46.5766 H           1 MOL       0.0546
     42 H5         36.7137   14.4487   44.2088 H           1 MOL       0.0398
     43 H6         32.0354   16.5973   47.1349 H           1 MOL       0.0536
     44 H7         31.7905   15.0687   48.0042 H           1 MOL       0.0536
     45 H8         29.6697   16.7453   46.5841 H           1 MOL       0.0579
     46 H9         29.8116   16.3876   48.3136 H           1 MOL       0.0579
     47 H10        28.8055   14.8971   45.1522 H           1 MOL       0.0579
     48 H11        28.7690   13.2772   45.8555 H           1 MOL       0.0579
     49 H12        31.0570   12.9642   45.6916 H           1 MOL       0.0536
     50 H13        30.7368   14.0060   44.3067 H           1 MOL       0.0536
     51 H14        33.7705   13.7986   39.4516 H           1 MOL       0.0652
     52 H15        34.5591   13.7491   37.1976 H           1 MOL       0.0569
     53 H16        35.8332   14.5647   35.3908 H           1 MOL       0.0406
     54 H17        37.4651   14.9874   35.9046 H           1 MOL       0.0406
     55 H18        36.2802   16.2624   35.5492 H           1 MOL       0.0406
     56 H19        36.4338   16.9411   40.3359 H           1 MOL       0.0658
     57 H20        36.4962   18.8895   38.1207 H           1 MOL       0.0538
     58 H21        38.3356   20.3674   37.5935 H           1 MOL       0.0598
     59 H22        39.1072   15.5560   37.8747 H           1 MOL       0.0568
     60 H23        40.3993   21.3224   36.7544 H           1 MOL       0.0460
     61 H24        42.2186   22.2210   35.6115 H           1 MOL       0.0340
     62 H25        42.0803   20.5956   34.9418 H           1 MOL       0.0340
     63 H26        44.4498   21.3563   35.4472 H           1 MOL       0.0815
     64 H27        44.0287   19.8371   36.2433 H           1 MOL       0.0815
     65 H28        44.0006   22.5328   37.4295 H           1 MOL       0.2013
     66 H29        45.1332   21.3580   37.7218 H           1 MOL       0.2013
     67 H30        43.6237   21.5774   39.5477 H           1 MOL       0.0815
     68 H31        43.4633   19.9840   38.8018 H           1 MOL       0.0815
     69 H32        41.2070   20.9653   39.1859 H           1 MOL       0.0340
     70 H33        41.6835   22.4446   38.3678 H           1 MOL       0.0340
@<TRIPOS>BOND
     1     1     2   2
     2     2     3  am
     3     2    16   1
     4     3     4   1
     5     4     5  ar
     6     4     9  ar
     7     5     6  ar
     8     6     7  ar
     9     6    10   1
    10     7     8  ar
    11     8     9  ar
    12    10    11   1
    13    10    15   1
    14    11    12   1
    15    12    13   1
    16    13    14   1
    17    14    15   1
    18    16    17  ar
    19    16    22  ar
    20    17    18  ar
    21    18    19  ar
    22    19    20   1
    23    19    21  ar
    24    21    22  ar
    25    21    23   1
    26    23    24  ar
    27    23    29  ar
    28    24    25  ar
    29    25    26  ar
    30    26    27  ar
    31    26    30   1
    32    27    28   1
    33    27    29  ar
    34    28    31   1
    35    30    31   2
    36    30    32   1
    37    32    33   1
    38    32    37   1
    39    33    34   1
    40    34    35   1
    41    35    36   1
    42    36    37   1
    43     3    38   1
    44     5    39   1
    45     7    40   1
    46     8    41   1
    47     9    42   1
    48    11    43   1
    49    11    44   1
    50    12    45   1
    51    12    46   1
    52    14    47   1
    53    14    48   1
    54    15    49   1
    55    15    50   1
    56    17    51   1
    57    18    52   1
    58    20    53   1
    59    20    54   1
    60    20    55   1
    61    22    56   1
    62    24    57   1
    63    25    58   1
    64    29    59   1
    65    32    60   1
    66    33    61   1
    67    33    62   1
    68    34    63   1
    69    34    64   1
    70    35    65   1
    71    35    66   1
    72    36    67   1
    73    36    68   1
    74    37    69   1
    75    37    70   1
@<TRIPOS>SUBSTRUCTURE
     1  MOL      2

