@<TRIPOS>MOLECULE
3e93_ligand_073
    70    75
SMALL
GAST_HUCK
****
This file was generated by PARSER (from files_GN.cpp)

@<TRIPOS>ATOM
      1 O25        37.2057   21.9229   39.4035 O.2         1 MOL      -0.3760
      2 C22        37.9782   21.1078   38.8986 C.2         1 MOL       0.2274
      3 N24        37.7944   19.8046   39.0746 N.am        1 MOL      -0.2370
      4 C26        36.8230   19.1234   39.7671 C.ar        1 MOL       0.0536
      5 C27        36.1411   19.6072   40.9114 C.ar        1 MOL      -0.0255
      6 C29        35.1439   18.8492   41.5901 C.ar        1 MOL       0.0259
      7 C32        34.8602   17.5592   41.0702 C.ar        1 MOL      -0.0595
      8 C30        35.5396   17.0469   39.9535 C.ar        1 MOL      -0.0865
      9 C28        36.5170   17.8217   39.3132 C.ar        1 MOL      -0.0544
     10 N31        34.4821   19.3294   42.6996 N.pl3       1 MOL      -0.3075
     11 C33        34.0411   18.4632   43.7865 C.3         1 MOL       0.0499
     12 C35        34.6561   18.9609   45.1205 C.3         1 MOL       0.0673
     13 O37        34.4001   20.3655   45.3285 O.3         1 MOL      -0.3759
     14 C36        34.8436   21.2034   44.2419 C.3         1 MOL       0.0673
     15 C34        34.2086   20.7425   42.9068 C.3         1 MOL       0.0499
     16 C19        38.9543   21.5590   38.0032 C.ar        1 MOL       0.0497
     17 C23        38.7197   22.6870   37.1882 C.ar        1 MOL      -0.0479
     18 C20        39.6321   23.0643   36.1904 C.ar        1 MOL      -0.0536
     19 C18        40.8303   22.3423   35.9788 C.ar        1 MOL      -0.0326
     20 C21        41.6670   22.6820   34.7907 C.3         1 MOL      -0.0276
     21 C15        41.1417   21.2628   36.8601 C.ar        1 MOL      -0.0123
     22 C17        40.1936   20.8850   37.8468 C.ar        1 MOL      -0.0399
     23 C12        42.3505   20.5116   36.7391 C.ar        1 MOL      -0.0269
     24 C9         43.6182   21.1530   36.7168 C.ar        1 MOL      -0.0647
     25 C4         44.8039   20.4214   36.4833 C.ar        1 MOL      -0.0614
     26 C1         44.7163   19.0270   36.3028 C.ar        1 MOL       0.0282
     27 C3         43.4884   18.3854   36.4001 C.ar        1 MOL       0.1528
     28 O8         43.6968   17.0599   36.2163 O.3         1 MOL      -0.1790
     29 C7         42.3019   19.0956   36.6210 C.ar        1 MOL      -0.0179
     30 C2         45.6517   18.0341   36.0341 C.2         1 MOL       0.0534
     31 N6         44.9748   16.8650   36.0026 N.2         1 MOL      -0.1500
     32 C5         47.1112   18.2086   35.7874 C.3         1 MOL       0.0120
     33 C10        47.3702   19.1790   34.5892 C.3         1 MOL       0.0001
     34 C13        48.8817   19.3161   34.2658 C.3         1 MOL      -0.0317
     35 N16        49.4871   17.9842   34.0423 N.4         1 MOL       0.2272
     36 C14        49.3445   17.0633   35.1949 C.3         1 MOL      -0.0317
     37 C11        47.8469   16.8536   35.5391 C.3         1 MOL       0.0001
     38 H1         38.3611   19.2321   38.5293 H           1 MOL       0.2248
     39 H2         36.4407   20.4980   41.3005 H           1 MOL       0.0391
     40 H3         34.1182   16.9844   41.4727 H           1 MOL       0.0393
     41 H4         35.3059   16.1155   39.5986 H           1 MOL       0.0546
     42 H5         36.9958   17.4305   38.4974 H           1 MOL       0.0398
     43 H6         34.3443   17.4200   43.6738 H           1 MOL       0.0536
     44 H7         32.9496   18.4880   43.8542 H           1 MOL       0.0536
     45 H8         35.7348   18.7728   45.1248 H           1 MOL       0.0579
     46 H9         34.2149   18.4060   45.9514 H           1 MOL       0.0579
     47 H10        35.9344   21.1837   44.1648 H           1 MOL       0.0579
     48 H11        34.5351   22.2280   44.4533 H           1 MOL       0.0579
     49 H12        33.1244   20.8798   42.9652 H           1 MOL       0.0536
     50 H13        34.5491   21.3904   42.0973 H           1 MOL       0.0536
     51 H14        37.8469   23.2186   37.2664 H           1 MOL       0.0652
     52 H15        39.3927   23.8596   35.5890 H           1 MOL       0.0569
     53 H16        41.2262   23.4814   34.1838 H           1 MOL       0.0406
     54 H17        41.7536   21.7942   34.1548 H           1 MOL       0.0406
     55 H18        42.6693   22.9963   35.1087 H           1 MOL       0.0406
     56 H19        40.4134   20.1012   38.4717 H           1 MOL       0.0658
     57 H20        43.6824   22.1706   36.8371 H           1 MOL       0.0538
     58 H21        45.7071   20.8939   36.4350 H           1 MOL       0.0598
     59 H22        41.4164   18.5895   36.6593 H           1 MOL       0.0568
     60 H23        47.5409   18.6568   36.6910 H           1 MOL       0.0460
     61 H24        46.9844   20.1780   34.8138 H           1 MOL       0.0340
     62 H25        46.8547   18.8070   33.6953 H           1 MOL       0.0340
     63 H26        49.3956   19.8340   35.0816 H           1 MOL       0.0815
     64 H27        49.0040   19.9086   33.3567 H           1 MOL       0.0815
     65 H28        50.4805   18.1014   33.8255 H           1 MOL       0.2013
     66 H29        49.0234   17.5600   33.2333 H           1 MOL       0.2013
     67 H30        49.8867   17.4666   36.0585 H           1 MOL       0.0815
     68 H31        49.8009   16.1030   34.9278 H           1 MOL       0.0815
     69 H32        47.3790   16.3260   34.7031 H           1 MOL       0.0340
     70 H33        47.7690   16.2158   36.4232 H           1 MOL       0.0340
@<TRIPOS>BOND
     1     1     2   2
     2     2     3  am
     3     2    16   1
     4     3     4   1
     5     4     5  ar
     6     4     9  ar
     7     5     6  ar
     8     6     7  ar
     9     6    10   1
    10     7     8  ar
    11     8     9  ar
    12    10    11   1
    13    10    15   1
    14    11    12   1
    15    12    13   1
    16    13    14   1
    17    14    15   1
    18    16    17  ar
    19    16    22  ar
    20    17    18  ar
    21    18    19  ar
    22    19    20   1
    23    19    21  ar
    24    21    22  ar
    25    21    23   1
    26    23    24  ar
    27    23    29  ar
    28    24    25  ar
    29    25    26  ar
    30    26    27  ar
    31    26    30   1
    32    27    28   1
    33    27    29  ar
    34    28    31   1
    35    30    31   2
    36    30    32   1
    37    32    33   1
    38    32    37   1
    39    33    34   1
    40    34    35   1
    41    35    36   1
    42    36    37   1
    43     3    38   1
    44     5    39   1
    45     7    40   1
    46     8    41   1
    47     9    42   1
    48    11    43   1
    49    11    44   1
    50    12    45   1
    51    12    46   1
    52    14    47   1
    53    14    48   1
    54    15    49   1
    55    15    50   1
    56    17    51   1
    57    18    52   1
    58    20    53   1
    59    20    54   1
    60    20    55   1
    61    22    56   1
    62    24    57   1
    63    25    58   1
    64    29    59   1
    65    32    60   1
    66    33    61   1
    67    33    62   1
    68    34    63   1
    69    34    64   1
    70    35    65   1
    71    35    66   1
    72    36    67   1
    73    36    68   1
    74    37    69   1
    75    37    70   1
@<TRIPOS>SUBSTRUCTURE
     1  MOL      2

