@<TRIPOS>MOLECULE
3e93_ligand_031
    70    75
SMALL
GAST_HUCK
****
This file was generated by PARSER (from files_GN.cpp)

@<TRIPOS>ATOM
      1 O25        38.7508   18.8133   40.0318 O.2         1 MOL      -0.3760
      2 C22        37.8514   18.9379   39.2114 C.2         1 MOL       0.2274
      3 N24        36.8309   18.0830   39.1727 N.am        1 MOL      -0.2370
      4 C26        36.5461   17.0177   39.9816 C.ar        1 MOL       0.0536
      5 C27        36.9181   16.9145   41.3444 C.ar        1 MOL      -0.0255
      6 C29        36.6750   15.7525   42.1364 C.ar        1 MOL       0.0259
      7 C32        35.9772   14.6961   41.4805 C.ar        1 MOL      -0.0595
      8 C30        35.5131   14.8144   40.1615 C.ar        1 MOL      -0.0865
      9 C28        35.7911   15.9710   39.4195 C.ar        1 MOL      -0.0544
     10 N31        37.0824   15.6607   43.4590 N.pl3       1 MOL      -0.3075
     11 C33        37.3098   16.8682   44.2409 C.3         1 MOL       0.0499
     12 C35        37.5312   16.6633   45.7555 C.3         1 MOL       0.0673
     13 O37        38.4528   15.5844   45.9536 O.3         1 MOL      -0.3759
     14 C36        37.9108   14.3348   45.5072 C.3         1 MOL       0.0673
     15 C34        37.4535   14.3664   44.0221 C.3         1 MOL       0.0499
     16 C19        37.9335   19.9814   38.2930 C.ar        1 MOL       0.0497
     17 C23        37.5382   19.8193   36.9503 C.ar        1 MOL      -0.0479
     18 C20        37.6059   20.8841   36.0418 C.ar        1 MOL      -0.0536
     19 C18        38.0745   22.1577   36.4431 C.ar        1 MOL      -0.0326
     20 C21        38.1923   23.2109   35.3928 C.3         1 MOL      -0.0276
     21 C15        38.4599   22.3572   37.8044 C.ar        1 MOL      -0.0123
     22 C17        38.3952   21.2568   38.6931 C.ar        1 MOL      -0.0399
     23 C12        38.8946   23.6146   38.3369 C.ar        1 MOL      -0.0269
     24 C9         40.0967   23.7213   39.0914 C.ar        1 MOL      -0.0647
     25 C4         40.5064   24.9462   39.6593 C.ar        1 MOL      -0.0614
     26 C1         39.7081   26.0822   39.4394 C.ar        1 MOL       0.0282
     27 C3         38.5319   25.9938   38.7056 C.ar        1 MOL       0.1528
     28 O8         37.9788   27.2228   38.6276 O.3         1 MOL      -0.1790
     29 C7         38.0861   24.7653   38.1828 C.ar        1 MOL      -0.0179
     30 C2         39.8063   27.4158   39.8248 C.2         1 MOL       0.0534
     31 N6         38.7436   28.0533   39.2876 N.2         1 MOL      -0.1500
     32 C5         40.8242   28.0300   40.7224 C.3         1 MOL       0.0120
     33 C10        40.5981   27.6106   42.2084 C.3         1 MOL       0.0001
     34 C13        39.3811   28.3366   42.8383 C.3         1 MOL      -0.0317
     35 N16        39.5254   29.8051   42.7234 N.4         1 MOL       0.2272
     36 C14        39.7299   30.3099   41.3449 C.3         1 MOL      -0.0317
     37 C11        40.9044   29.5866   40.6263 C.3         1 MOL       0.0001
     38 H1         36.2198   18.2031   38.4316 H           1 MOL       0.2248
     39 H2         37.3963   17.7132   41.7589 H           1 MOL       0.0391
     40 H3         35.7329   13.8375   41.9710 H           1 MOL       0.0393
     41 H4         34.9796   14.0516   39.7415 H           1 MOL       0.0546
     42 H5         35.4554   16.0332   38.4577 H           1 MOL       0.0398
     43 H6         36.4542   17.5408   44.1351 H           1 MOL       0.0536
     44 H7         38.1985   17.3727   43.8511 H           1 MOL       0.0536
     45 H8         36.5797   16.4730   46.2628 H           1 MOL       0.0579
     46 H9         37.9615   17.5680   46.1853 H           1 MOL       0.0579
     47 H10        37.0718   14.0598   46.1539 H           1 MOL       0.0579
     48 H11        38.6796   13.5694   45.6320 H           1 MOL       0.0579
     49 H12        38.2711   13.9703   43.4126 H           1 MOL       0.0536
     50 H13        36.6196   13.6642   43.9604 H           1 MOL       0.0536
     51 H14        37.2151   18.9157   36.6023 H           1 MOL       0.0652
     52 H15        37.3127   20.7166   35.0750 H           1 MOL       0.0569
     53 H16        38.0611   22.8106   34.3850 H           1 MOL       0.0406
     54 H17        39.1756   23.6770   35.4191 H           1 MOL       0.0406
     55 H18        37.4350   23.9861   35.5522 H           1 MOL       0.0406
     56 H19        38.6611   21.4001   39.6684 H           1 MOL       0.0658
     57 H20        40.6842   22.9031   39.2382 H           1 MOL       0.0538
     58 H21        41.3604   25.0047   40.2141 H           1 MOL       0.0598
     59 H22        37.1839   24.7119   37.6986 H           1 MOL       0.0568
     60 H23        41.7964   27.6431   40.4017 H           1 MOL       0.0460
     61 H24        41.4871   27.8694   42.7908 H           1 MOL       0.0340
     62 H25        40.4584   26.5296   42.2913 H           1 MOL       0.0340
     63 H26        39.3119   28.0797   43.8984 H           1 MOL       0.0815
     64 H27        38.4539   28.0178   42.3547 H           1 MOL       0.0815
     65 H28        40.3272   30.0931   43.2887 H           1 MOL       0.2013
     66 H29        38.6811   30.2363   43.1113 H           1 MOL       0.2013
     67 H30        39.9485   31.3792   41.3973 H           1 MOL       0.0815
     68 H31        38.8020   30.1962   40.7823 H           1 MOL       0.0815
     69 H32        40.9364   29.8953   39.5772 H           1 MOL       0.0340
     70 H33        41.8400   29.9138   41.0912 H           1 MOL       0.0340
@<TRIPOS>BOND
     1     1     2   2
     2     2     3  am
     3     2    16   1
     4     3     4   1
     5     4     5  ar
     6     4     9  ar
     7     5     6  ar
     8     6     7  ar
     9     6    10   1
    10     7     8  ar
    11     8     9  ar
    12    10    11   1
    13    10    15   1
    14    11    12   1
    15    12    13   1
    16    13    14   1
    17    14    15   1
    18    16    17  ar
    19    16    22  ar
    20    17    18  ar
    21    18    19  ar
    22    19    20   1
    23    19    21  ar
    24    21    22  ar
    25    21    23   1
    26    23    24  ar
    27    23    29  ar
    28    24    25  ar
    29    25    26  ar
    30    26    27  ar
    31    26    30   1
    32    27    28   1
    33    27    29  ar
    34    28    31   1
    35    30    31   2
    36    30    32   1
    37    32    33   1
    38    32    37   1
    39    33    34   1
    40    34    35   1
    41    35    36   1
    42    36    37   1
    43     3    38   1
    44     5    39   1
    45     7    40   1
    46     8    41   1
    47     9    42   1
    48    11    43   1
    49    11    44   1
    50    12    45   1
    51    12    46   1
    52    14    47   1
    53    14    48   1
    54    15    49   1
    55    15    50   1
    56    17    51   1
    57    18    52   1
    58    20    53   1
    59    20    54   1
    60    20    55   1
    61    22    56   1
    62    24    57   1
    63    25    58   1
    64    29    59   1
    65    32    60   1
    66    33    61   1
    67    33    62   1
    68    34    63   1
    69    34    64   1
    70    35    65   1
    71    35    66   1
    72    36    67   1
    73    36    68   1
    74    37    69   1
    75    37    70   1
@<TRIPOS>SUBSTRUCTURE
     1  MOL      2

