@<TRIPOS>MOLECULE
3e93_ligand_082
    70    75
SMALL
GAST_HUCK
****
This file was generated by PARSER (from files_GN.cpp)

@<TRIPOS>ATOM
      1 O25        39.2494   19.6374   40.5912 O.2         1 MOL      -0.3760
      2 C22        39.7671   20.4095   39.7916 C.2         1 MOL       0.2274
      3 N24        40.4178   19.9554   38.7243 N.am        1 MOL      -0.2370
      4 C26        40.4837   18.6719   38.2536 C.ar        1 MOL       0.0536
      5 C27        39.3752   17.7939   38.2561 C.ar        1 MOL      -0.0255
      6 C29        39.4107   16.5442   37.5893 C.ar        1 MOL       0.0259
      7 C32        40.6158   16.1813   36.9389 C.ar        1 MOL      -0.0595
      8 C30        41.7477   17.0129   36.9843 C.ar        1 MOL      -0.0865
      9 C28        41.6725   18.2630   37.6182 C.ar        1 MOL      -0.0544
     10 N31        38.2969   15.7446   37.5263 N.pl3       1 MOL      -0.3075
     11 C33        37.4056   15.5532   38.6534 C.3         1 MOL       0.0499
     12 C35        35.9847   16.0424   38.2866 C.3         1 MOL       0.0673
     13 O37        35.5441   15.4574   37.0429 O.3         1 MOL      -0.3759
     14 C36        36.4497   15.6715   35.9417 C.3         1 MOL       0.0673
     15 C34        37.8687   15.1426   36.2794 C.3         1 MOL       0.0499
     16 C19        39.7984   21.7688   40.0977 C.ar        1 MOL       0.0497
     17 C23        40.0312   22.1927   41.4223 C.ar        1 MOL      -0.0479
     18 C20        40.1625   23.5525   41.7278 C.ar        1 MOL      -0.0536
     19 C18        40.0264   24.5430   40.7293 C.ar        1 MOL      -0.0326
     20 C21        40.3248   25.9583   41.1058 C.3         1 MOL      -0.0276
     21 C15        39.6785   24.1513   39.3964 C.ar        1 MOL      -0.0123
     22 C17        39.6219   22.7621   39.1017 C.ar        1 MOL      -0.0399
     23 C12        39.4476   25.0980   38.3396 C.ar        1 MOL      -0.0269
     24 C9         38.5982   26.2239   38.5367 C.ar        1 MOL      -0.0647
     25 C4         38.4765   27.2325   37.5605 C.ar        1 MOL      -0.0614
     26 C1         39.1774   27.0891   36.3526 C.ar        1 MOL       0.0282
     27 C3         39.9128   25.9396   36.0972 C.ar        1 MOL       0.1528
     28 O8         40.4208   26.0416   34.8505 O.3         1 MOL      -0.1790
     29 C7         40.0692   24.9400   37.0718 C.ar        1 MOL      -0.0179
     30 C2         39.3328   27.9055   35.2376 C.2         1 MOL       0.0534
     31 N6         40.0635   27.1998   34.3520 N.2         1 MOL      -0.1500
     32 C5         38.9119   29.3307   35.1203 C.3         1 MOL       0.0120
     33 C10        38.8741   29.9087   33.6703 C.3         1 MOL       0.0001
     34 C13        40.2805   30.2146   33.0910 C.3         1 MOL      -0.0317
     35 N16        41.0862   31.0382   34.0225 N.4         1 MOL       0.2272
     36 C14        41.2089   30.4732   35.3847 C.3         1 MOL      -0.0317
     37 C11        39.8097   30.2420   36.0156 C.3         1 MOL       0.0001
     38 H1         40.9520   20.6137   38.2452 H           1 MOL       0.2248
     39 H2         38.4959   18.1218   38.6581 H           1 MOL       0.0391
     40 H3         40.6894   15.2802   36.4613 H           1 MOL       0.0393
     41 H4         42.6129   16.7164   36.5333 H           1 MOL       0.0546
     42 H5         42.4966   18.8713   37.6156 H           1 MOL       0.0398
     43 H6         37.7429   16.0594   39.5599 H           1 MOL       0.0536
     44 H7         37.3639   14.4869   38.8879 H           1 MOL       0.0536
     45 H8         35.9843   17.1317   38.2132 H           1 MOL       0.0579
     46 H9         35.2826   15.7556   39.0719 H           1 MOL       0.0579
     47 H10        36.4924   16.7379   35.7029 H           1 MOL       0.0579
     48 H11        36.0582   15.1494   35.0684 H           1 MOL       0.0579
     49 H12        37.8421   14.0562   36.3785 H           1 MOL       0.0536
     50 H13        38.5212   15.3819   35.4382 H           1 MOL       0.0536
     51 H14        40.1604   21.5129   42.1726 H           1 MOL       0.0652
     52 H15        40.3911   23.8160   42.6879 H           1 MOL       0.0569
     53 H16        40.7896   26.0373   42.0976 H           1 MOL       0.0406
     54 H17        39.4037   26.5523   41.1258 H           1 MOL       0.0406
     55 H18        41.0252   26.3930   40.3810 H           1 MOL       0.0406
     56 H19        39.4113   22.4614   38.1443 H           1 MOL       0.0658
     57 H20        38.0704   26.3242   39.4061 H           1 MOL       0.0538
     58 H21        37.8832   28.0442   37.7329 H           1 MOL       0.0598
     59 H22        40.6708   24.1385   36.8685 H           1 MOL       0.0568
     60 H23        37.8894   29.3752   35.5029 H           1 MOL       0.0460
     61 H24        38.3106   30.8456   33.6913 H           1 MOL       0.0340
     62 H25        38.3448   29.2304   33.0011 H           1 MOL       0.0340
     63 H26        40.1724   30.7652   32.1541 H           1 MOL       0.0815
     64 H27        40.8143   29.2883   32.8680 H           1 MOL       0.0815
     65 H28        40.6495   31.9612   34.0983 H           1 MOL       0.2013
     66 H29        42.0244   31.1568   33.6310 H           1 MOL       0.2013
     67 H30        41.7728   31.1767   36.0020 H           1 MOL       0.0815
     68 H31        41.7716   29.5358   35.3433 H           1 MOL       0.0815
     69 H32        39.9309   29.8180   37.0160 H           1 MOL       0.0340
     70 H33        39.3229   31.2142   36.1347 H           1 MOL       0.0340
@<TRIPOS>BOND
     1     1     2   2
     2     2     3  am
     3     2    16   1
     4     3     4   1
     5     4     5  ar
     6     4     9  ar
     7     5     6  ar
     8     6     7  ar
     9     6    10   1
    10     7     8  ar
    11     8     9  ar
    12    10    11   1
    13    10    15   1
    14    11    12   1
    15    12    13   1
    16    13    14   1
    17    14    15   1
    18    16    17  ar
    19    16    22  ar
    20    17    18  ar
    21    18    19  ar
    22    19    20   1
    23    19    21  ar
    24    21    22  ar
    25    21    23   1
    26    23    24  ar
    27    23    29  ar
    28    24    25  ar
    29    25    26  ar
    30    26    27  ar
    31    26    30   1
    32    27    28   1
    33    27    29  ar
    34    28    31   1
    35    30    31   2
    36    30    32   1
    37    32    33   1
    38    32    37   1
    39    33    34   1
    40    34    35   1
    41    35    36   1
    42    36    37   1
    43     3    38   1
    44     5    39   1
    45     7    40   1
    46     8    41   1
    47     9    42   1
    48    11    43   1
    49    11    44   1
    50    12    45   1
    51    12    46   1
    52    14    47   1
    53    14    48   1
    54    15    49   1
    55    15    50   1
    56    17    51   1
    57    18    52   1
    58    20    53   1
    59    20    54   1
    60    20    55   1
    61    22    56   1
    62    24    57   1
    63    25    58   1
    64    29    59   1
    65    32    60   1
    66    33    61   1
    67    33    62   1
    68    34    63   1
    69    34    64   1
    70    35    65   1
    71    35    66   1
    72    36    67   1
    73    36    68   1
    74    37    69   1
    75    37    70   1
@<TRIPOS>SUBSTRUCTURE
     1  MOL      2

