@<TRIPOS>MOLECULE
3e93_ligand_039
    70    75
SMALL
GAST_HUCK
****
This file was generated by PARSER (from files_GN.cpp)

@<TRIPOS>ATOM
      1 O25        37.3484   19.6562   36.2959 O.2         1 MOL      -0.3760
      2 C22        37.9067   18.9772   37.1504 C.2         1 MOL       0.2274
      3 N24        39.1874   19.1106   37.4646 N.am        1 MOL      -0.2370
      4 C26        40.1039   20.0284   37.0295 C.ar        1 MOL       0.0536
      5 C27        39.7992   21.3688   36.6885 C.ar        1 MOL      -0.0255
      6 C29        40.7962   22.3041   36.2904 C.ar        1 MOL       0.0259
      7 C32        42.1333   21.8248   36.2550 C.ar        1 MOL      -0.0595
      8 C30        42.4573   20.5007   36.5918 C.ar        1 MOL      -0.0865
      9 C28        41.4481   19.6107   36.9848 C.ar        1 MOL      -0.0544
     10 N31        40.4939   23.6118   35.9642 N.pl3       1 MOL      -0.3075
     11 C33        39.3544   24.3283   36.5184 C.3         1 MOL       0.0499
     12 C35        38.4356   24.8000   35.3668 C.3         1 MOL       0.0673
     13 O37        39.1877   25.6187   34.4486 O.3         1 MOL      -0.3759
     14 C36        40.3434   24.9556   33.8972 C.3         1 MOL       0.0673
     15 C34        41.2716   24.3908   35.0080 C.3         1 MOL       0.0499
     16 C19        37.2027   17.9308   37.7121 C.ar        1 MOL       0.0497
     17 C23        36.7477   16.8745   36.8979 C.ar        1 MOL      -0.0479
     18 C20        36.0260   15.8096   37.4573 C.ar        1 MOL      -0.0536
     19 C18        35.7081   15.7841   38.8360 C.ar        1 MOL      -0.0326
     20 C21        34.9183   14.6437   39.3686 C.3         1 MOL      -0.0276
     21 C15        36.1659   16.8458   39.6711 C.ar        1 MOL      -0.0123
     22 C17        36.9339   17.8910   39.1008 C.ar        1 MOL      -0.0399
     23 C12        35.8543   16.9128   41.0602 C.ar        1 MOL      -0.0269
     24 C9         34.5370   17.2227   41.4857 C.ar        1 MOL      -0.0647
     25 C4         34.2095   17.3092   42.8549 C.ar        1 MOL      -0.0614
     26 C1         35.2210   17.1059   43.8132 C.ar        1 MOL       0.0282
     27 C3         36.5122   16.7918   43.3996 C.ar        1 MOL       0.1528
     28 O8         37.2776   16.6254   44.4978 O.3         1 MOL      -0.1790
     29 C7         36.8522   16.6885   42.0399 C.ar        1 MOL      -0.0179
     30 C2         35.2629   17.1396   45.2079 C.2         1 MOL       0.0534
     31 N6         36.5324   16.8290   45.5532 N.2         1 MOL      -0.1500
     32 C5         34.1518   17.4297   46.1679 C.3         1 MOL       0.0120
     33 C10        33.5123   18.8393   45.9573 C.3         1 MOL       0.0001
     34 C13        34.4494   19.9723   46.4432 C.3         1 MOL      -0.0317
     35 N16        34.8004   19.7819   47.8686 N.4         1 MOL       0.2272
     36 C14        35.4263   18.4757   48.1755 C.3         1 MOL      -0.0317
     37 C11        34.5582   17.2880   47.6735 C.3         1 MOL       0.0001
     38 H1         39.5459   18.4144   38.0390 H           1 MOL       0.2248
     39 H2         38.8222   21.6528   36.7120 H           1 MOL       0.0391
     40 H3         42.9089   22.4496   36.0329 H           1 MOL       0.0393
     41 H4         43.4318   20.1911   36.5701 H           1 MOL       0.0546
     42 H5         41.7027   18.6485   37.2278 H           1 MOL       0.0398
     43 H6         39.7239   25.2101   37.0523 H           1 MOL       0.0536
     44 H7         38.7662   23.7652   37.2445 H           1 MOL       0.0536
     45 H8         37.6177   25.3978   35.7721 H           1 MOL       0.0579
     46 H9         38.0031   23.9396   34.8464 H           1 MOL       0.0579
     47 H10        40.8982   25.6816   33.2982 H           1 MOL       0.0579
     48 H11        40.0224   24.1476   33.2331 H           1 MOL       0.0579
     49 H12        42.0502   23.8193   34.5003 H           1 MOL       0.0536
     50 H13        41.7563   25.2205   35.5256 H           1 MOL       0.0536
     51 H14        36.9509   16.8669   35.8930 H           1 MOL       0.0652
     52 H15        35.7220   15.0535   36.8386 H           1 MOL       0.0569
     53 H16        34.7345   13.8733   38.6165 H           1 MOL       0.0406
     54 H17        33.9506   14.9998   39.7237 H           1 MOL       0.0406
     55 H18        35.4552   14.1797   40.1971 H           1 MOL       0.0406
     56 H19        37.2719   18.6534   39.6986 H           1 MOL       0.0658
     57 H20        33.8056   17.3971   40.7977 H           1 MOL       0.0538
     58 H21        33.2512   17.5179   43.1374 H           1 MOL       0.0598
     59 H22        37.8094   16.4526   41.7744 H           1 MOL       0.0568
     60 H23        33.3771   16.6818   45.9723 H           1 MOL       0.0460
     61 H24        32.5774   18.8961   46.5252 H           1 MOL       0.0340
     62 H25        33.2593   19.0082   44.9109 H           1 MOL       0.0340
     63 H26        33.9418   20.9322   46.3323 H           1 MOL       0.0815
     64 H27        35.3592   20.0002   45.8368 H           1 MOL       0.0815
     65 H28        33.9454   19.8680   48.4236 H           1 MOL       0.2013
     66 H29        35.4433   20.5269   48.1488 H           1 MOL       0.2013
     67 H30        35.5538   18.4010   49.2579 H           1 MOL       0.0815
     68 H31        36.4180   18.4386   47.7217 H           1 MOL       0.0815
     69 H32        35.0966   16.3504   47.8363 H           1 MOL       0.0340
     70 H33        33.6509   17.2469   48.2838 H           1 MOL       0.0340
@<TRIPOS>BOND
     1     1     2   2
     2     2     3  am
     3     2    16   1
     4     3     4   1
     5     4     5  ar
     6     4     9  ar
     7     5     6  ar
     8     6     7  ar
     9     6    10   1
    10     7     8  ar
    11     8     9  ar
    12    10    11   1
    13    10    15   1
    14    11    12   1
    15    12    13   1
    16    13    14   1
    17    14    15   1
    18    16    17  ar
    19    16    22  ar
    20    17    18  ar
    21    18    19  ar
    22    19    20   1
    23    19    21  ar
    24    21    22  ar
    25    21    23   1
    26    23    24  ar
    27    23    29  ar
    28    24    25  ar
    29    25    26  ar
    30    26    27  ar
    31    26    30   1
    32    27    28   1
    33    27    29  ar
    34    28    31   1
    35    30    31   2
    36    30    32   1
    37    32    33   1
    38    32    37   1
    39    33    34   1
    40    34    35   1
    41    35    36   1
    42    36    37   1
    43     3    38   1
    44     5    39   1
    45     7    40   1
    46     8    41   1
    47     9    42   1
    48    11    43   1
    49    11    44   1
    50    12    45   1
    51    12    46   1
    52    14    47   1
    53    14    48   1
    54    15    49   1
    55    15    50   1
    56    17    51   1
    57    18    52   1
    58    20    53   1
    59    20    54   1
    60    20    55   1
    61    22    56   1
    62    24    57   1
    63    25    58   1
    64    29    59   1
    65    32    60   1
    66    33    61   1
    67    33    62   1
    68    34    63   1
    69    34    64   1
    70    35    65   1
    71    35    66   1
    72    36    67   1
    73    36    68   1
    74    37    69   1
    75    37    70   1
@<TRIPOS>SUBSTRUCTURE
     1  MOL      2

