@<TRIPOS>MOLECULE
3e93_ligand_042
    70    75
SMALL
GAST_HUCK
****
This file was generated by PARSER (from files_GN.cpp)

@<TRIPOS>ATOM
      1 O25        38.4819   21.3551   40.1473 O.2         1 MOL      -0.3760
      2 C22        37.4596   21.7622   39.6032 C.2         1 MOL       0.2274
      3 N24        36.3169   21.9920   40.2460 N.am        1 MOL      -0.2370
      4 C26        36.0479   21.7382   41.5583 C.ar        1 MOL       0.0536
      5 C27        36.5219   20.5878   42.2273 C.ar        1 MOL      -0.0255
      6 C29        36.3594   20.4234   43.6211 C.ar        1 MOL       0.0259
      7 C32        35.6544   21.4229   44.3366 C.ar        1 MOL      -0.0595
      8 C30        35.0763   22.5126   43.6592 C.ar        1 MOL      -0.0865
      9 C28        35.2757   22.6720   42.2788 C.ar        1 MOL      -0.0544
     10 N31        36.9347   19.3635   44.2578 N.pl3       1 MOL      -0.3075
     11 C33        38.1513   19.5337   45.0244 C.3         1 MOL       0.0499
     12 C35        39.2722   18.6649   44.3923 C.3         1 MOL       0.0673
     13 O37        38.8415   17.2932   44.2526 O.3         1 MOL      -0.3759
     14 C36        37.6233   17.1329   43.4846 C.3         1 MOL       0.0673
     15 C34        36.4771   18.0071   44.0480 C.3         1 MOL       0.0499
     16 C19        37.5332   22.0656   38.2676 C.ar        1 MOL       0.0497
     17 C23        36.9679   21.1767   37.3271 C.ar        1 MOL      -0.0479
     18 C20        36.9786   21.5019   35.9648 C.ar        1 MOL      -0.0536
     19 C18        37.5370   22.7168   35.5029 C.ar        1 MOL      -0.0326
     20 C21        37.4293   23.0463   34.0585 C.3         1 MOL      -0.0276
     21 C15        38.1465   23.6029   36.4489 C.ar        1 MOL      -0.0123
     22 C17        38.1334   23.2636   37.8222 C.ar        1 MOL      -0.0399
     23 C12        38.7038   24.8583   36.0662 C.ar        1 MOL      -0.0269
     24 C9         39.6908   24.9420   35.0510 C.ar        1 MOL      -0.0647
     25 C4         40.1664   26.1931   34.5970 C.ar        1 MOL      -0.0614
     26 C1         39.6877   27.3687   35.2073 C.ar        1 MOL       0.0282
     27 C3         38.7606   27.2899   36.2412 C.ar        1 MOL       0.1528
     28 O8         38.4656   28.5451   36.6457 O.3         1 MOL      -0.1790
     29 C7         38.2509   26.0565   36.6781 C.ar        1 MOL      -0.0179
     30 C2         39.9074   28.7319   35.0088 C.2         1 MOL       0.0534
     31 N6         39.1504   29.3871   35.9161 N.2         1 MOL      -0.1500
     32 C5         40.6915   29.3975   33.9366 C.3         1 MOL       0.0120
     33 C10        41.9012   30.2278   34.4597 C.3         1 MOL       0.0001
     34 C13        42.6465   30.8959   33.2697 C.3         1 MOL      -0.0317
     35 N16        41.7291   31.7132   32.4391 N.4         1 MOL       0.2272
     36 C14        40.5338   30.9965   31.9406 C.3         1 MOL      -0.0317
     37 C11        39.7570   30.3189   33.0966 C.3         1 MOL       0.0001
     38 H1         35.6360   22.4735   39.7490 H           1 MOL       0.2248
     39 H2         37.0495   19.8869   41.7030 H           1 MOL       0.0391
     40 H3         35.5107   21.3285   45.3465 H           1 MOL       0.0393
     41 H4         34.5333   23.2048   44.1863 H           1 MOL       0.0546
     42 H5         34.8857   23.4944   41.8135 H           1 MOL       0.0398
     43 H6         37.9808   19.2221   46.0581 H           1 MOL       0.0536
     44 H7         38.5009   20.5693   45.0331 H           1 MOL       0.0536
     45 H8         40.1550   18.6847   45.0330 H           1 MOL       0.0579
     46 H9         39.5587   19.0627   43.4119 H           1 MOL       0.0579
     47 H10        37.3299   16.0795   43.5274 H           1 MOL       0.0579
     48 H11        37.8078   17.3898   42.4375 H           1 MOL       0.0579
     49 H12        35.6146   17.9460   43.3773 H           1 MOL       0.0536
     50 H13        36.1626   17.6006   45.0155 H           1 MOL       0.0536
     51 H14        36.5365   20.2982   37.6280 H           1 MOL       0.0652
     52 H15        36.5386   20.8465   35.3137 H           1 MOL       0.0569
     53 H16        36.8919   22.2698   33.4997 H           1 MOL       0.0406
     54 H17        38.4400   23.1426   33.6423 H           1 MOL       0.0406
     55 H18        36.8867   23.9928   33.9545 H           1 MOL       0.0406
     56 H19        38.5547   23.9036   38.5088 H           1 MOL       0.0658
     57 H20        40.0488   24.0851   34.6167 H           1 MOL       0.0538
     58 H21        40.8429   26.2405   33.8308 H           1 MOL       0.0598
     59 H22        37.5411   26.0426   37.4159 H           1 MOL       0.0568
     60 H23        41.0857   28.6220   33.2739 H           1 MOL       0.0460
     61 H24        42.5993   29.5841   35.0019 H           1 MOL       0.0340
     62 H25        41.5564   31.0067   35.1478 H           1 MOL       0.0340
     63 H26        43.1171   30.1303   32.6472 H           1 MOL       0.0815
     64 H27        43.4336   31.5478   33.6477 H           1 MOL       0.0815
     65 H28        42.2510   32.0695   31.6346 H           1 MOL       0.2013
     66 H29        41.4166   32.5115   32.9980 H           1 MOL       0.2013
     67 H30        40.8323   30.2476   31.2037 H           1 MOL       0.0815
     68 H31        39.8786   31.7169   31.4452 H           1 MOL       0.0815
     69 H32        39.3365   31.1021   33.7377 H           1 MOL       0.0340
     70 H33        38.9271   29.7382   32.6876 H           1 MOL       0.0340
@<TRIPOS>BOND
     1     1     2   2
     2     2     3  am
     3     2    16   1
     4     3     4   1
     5     4     5  ar
     6     4     9  ar
     7     5     6  ar
     8     6     7  ar
     9     6    10   1
    10     7     8  ar
    11     8     9  ar
    12    10    11   1
    13    10    15   1
    14    11    12   1
    15    12    13   1
    16    13    14   1
    17    14    15   1
    18    16    17  ar
    19    16    22  ar
    20    17    18  ar
    21    18    19  ar
    22    19    20   1
    23    19    21  ar
    24    21    22  ar
    25    21    23   1
    26    23    24  ar
    27    23    29  ar
    28    24    25  ar
    29    25    26  ar
    30    26    27  ar
    31    26    30   1
    32    27    28   1
    33    27    29  ar
    34    28    31   1
    35    30    31   2
    36    30    32   1
    37    32    33   1
    38    32    37   1
    39    33    34   1
    40    34    35   1
    41    35    36   1
    42    36    37   1
    43     3    38   1
    44     5    39   1
    45     7    40   1
    46     8    41   1
    47     9    42   1
    48    11    43   1
    49    11    44   1
    50    12    45   1
    51    12    46   1
    52    14    47   1
    53    14    48   1
    54    15    49   1
    55    15    50   1
    56    17    51   1
    57    18    52   1
    58    20    53   1
    59    20    54   1
    60    20    55   1
    61    22    56   1
    62    24    57   1
    63    25    58   1
    64    29    59   1
    65    32    60   1
    66    33    61   1
    67    33    62   1
    68    34    63   1
    69    34    64   1
    70    35    65   1
    71    35    66   1
    72    36    67   1
    73    36    68   1
    74    37    69   1
    75    37    70   1
@<TRIPOS>SUBSTRUCTURE
     1  MOL      2

