@<TRIPOS>MOLECULE
3e93_ligand_038
    70    75
SMALL
GAST_HUCK
****
This file was generated by PARSER (from files_GN.cpp)

@<TRIPOS>ATOM
      1 O25        39.3377   29.8338   37.3573 O.2         1 MOL      -0.3760
      2 C22        39.7799   28.7383   37.0274 C.2         1 MOL       0.2274
      3 N24        40.0769   28.4629   35.7581 N.am        1 MOL      -0.2370
      4 C26        39.8349   29.2281   34.6488 C.ar        1 MOL       0.0536
      5 C27        40.7665   29.1861   33.5906 C.ar        1 MOL      -0.0255
      6 C29        40.6294   29.9958   32.4338 C.ar        1 MOL       0.0259
      7 C32        39.4833   30.8270   32.3515 C.ar        1 MOL      -0.0595
      8 C30        38.5056   30.8237   33.3577 C.ar        1 MOL      -0.0865
      9 C28        38.6814   30.0301   34.5006 C.ar        1 MOL      -0.0544
     10 N31        41.5597   29.9791   31.4243 N.pl3       1 MOL      -0.3075
     11 C33        42.2105   28.7588   30.9853 C.3         1 MOL       0.0499
     12 C35        43.7493   28.9186   31.0321 C.3         1 MOL       0.0673
     13 O37        44.1496   30.1064   30.3180 O.3         1 MOL      -0.3759
     14 C36        43.5095   31.3100   30.7912 C.3         1 MOL       0.0673
     15 C34        41.9644   31.1887   30.7308 C.3         1 MOL       0.0499
     16 C19        40.0706   27.8184   38.0257 C.ar        1 MOL       0.0497
     17 C23        40.7082   28.2203   39.2216 C.ar        1 MOL      -0.0479
     18 C20        41.0032   27.2894   40.2313 C.ar        1 MOL      -0.0536
     19 C18        40.6320   25.9317   40.1016 C.ar        1 MOL      -0.0326
     20 C21        40.9832   24.9753   41.1891 C.3         1 MOL      -0.0276
     21 C15        39.9657   25.5239   38.9108 C.ar        1 MOL      -0.0123
     22 C17        39.7089   26.4602   37.8837 C.ar        1 MOL      -0.0399
     23 C12        39.4978   24.2023   38.7280 C.ar        1 MOL      -0.0269
     24 C9         38.4001   23.7393   39.4947 C.ar        1 MOL      -0.0647
     25 C4         37.9039   22.4300   39.3340 C.ar        1 MOL      -0.0614
     26 C1         38.5533   21.5583   38.4331 C.ar        1 MOL       0.0282
     27 C3         39.5995   22.0386   37.6502 C.ar        1 MOL       0.1528
     28 O8         40.0280   21.0469   36.8436 O.3         1 MOL      -0.1790
     29 C7         40.0807   23.3514   37.7593 C.ar        1 MOL      -0.0179
     30 C2         38.4196   20.2060   38.0876 C.2         1 MOL       0.0534
     31 N6         39.3287   19.9778   37.1099 N.2         1 MOL      -0.1500
     32 C5         37.4867   19.1497   38.6043 C.3         1 MOL       0.0120
     33 C10        37.4230   19.0844   40.1651 C.3         1 MOL       0.0001
     34 C13        36.4887   17.9556   40.6671 C.3         1 MOL      -0.0317
     35 N16        36.9064   16.6491   40.1213 N.4         1 MOL       0.2272
     36 C14        36.9243   16.6065   38.6438 C.3         1 MOL      -0.0317
     37 C11        37.8291   17.7192   38.0533 C.3         1 MOL       0.0001
     38 H1         40.6455   27.6872   35.6157 H           1 MOL       0.2248
     39 H2         41.6036   28.6112   33.7035 H           1 MOL       0.0391
     40 H3         39.3154   31.3991   31.5196 H           1 MOL       0.0393
     41 H4         37.6654   31.3985   33.2601 H           1 MOL       0.0546
     42 H5         37.9571   30.0324   35.2171 H           1 MOL       0.0398
     43 H6         41.9140   28.5698   29.9492 H           1 MOL       0.0536
     44 H7         41.9230   27.8732   31.5547 H           1 MOL       0.0536
     45 H8         44.2159   28.0527   30.5558 H           1 MOL       0.0579
     46 H9         44.0944   28.9635   32.0670 H           1 MOL       0.0579
     47 H10        43.8363   32.1414   30.1650 H           1 MOL       0.0579
     48 H11        43.8250   31.5163   31.8195 H           1 MOL       0.0579
     49 H12        41.5476   32.0989   31.1732 H           1 MOL       0.0536
     50 H13        41.6347   31.1436   29.6890 H           1 MOL       0.0536
     51 H14        41.0025   29.1948   39.3535 H           1 MOL       0.0652
     52 H15        41.5021   27.6137   41.0649 H           1 MOL       0.0569
     53 H16        41.5264   25.4535   42.0042 H           1 MOL       0.0406
     54 H17        41.6141   24.1809   40.7871 H           1 MOL       0.0406
     55 H18        40.0838   24.5324   41.6178 H           1 MOL       0.0406
     56 H19        39.2172   26.1593   37.0375 H           1 MOL       0.0658
     57 H20        37.9562   24.3624   40.1775 H           1 MOL       0.0538
     58 H21        37.0875   22.1301   39.8727 H           1 MOL       0.0598
     59 H22        40.8511   23.6674   37.1675 H           1 MOL       0.0568
     60 H23        36.4923   19.4205   38.2385 H           1 MOL       0.0460
     61 H24        37.0414   20.0215   40.5736 H           1 MOL       0.0340
     62 H25        38.4293   18.9108   40.5636 H           1 MOL       0.0340
     63 H26        35.4544   18.1646   40.3795 H           1 MOL       0.0815
     64 H27        36.5327   17.9056   41.7608 H           1 MOL       0.0815
     65 H28        36.2695   15.9290   40.4718 H           1 MOL       0.2013
     66 H29        37.8451   16.4548   40.4722 H           1 MOL       0.2013
     67 H30        35.9056   16.7104   38.2633 H           1 MOL       0.0815
     68 H31        37.3019   15.6338   38.3398 H           1 MOL       0.0815
     69 H32        38.8669   17.4810   38.2993 H           1 MOL       0.0340
     70 H33        37.7324   17.7086   36.9634 H           1 MOL       0.0340
@<TRIPOS>BOND
     1     1     2   2
     2     2     3  am
     3     2    16   1
     4     3     4   1
     5     4     5  ar
     6     4     9  ar
     7     5     6  ar
     8     6     7  ar
     9     6    10   1
    10     7     8  ar
    11     8     9  ar
    12    10    11   1
    13    10    15   1
    14    11    12   1
    15    12    13   1
    16    13    14   1
    17    14    15   1
    18    16    17  ar
    19    16    22  ar
    20    17    18  ar
    21    18    19  ar
    22    19    20   1
    23    19    21  ar
    24    21    22  ar
    25    21    23   1
    26    23    24  ar
    27    23    29  ar
    28    24    25  ar
    29    25    26  ar
    30    26    27  ar
    31    26    30   1
    32    27    28   1
    33    27    29  ar
    34    28    31   1
    35    30    31   2
    36    30    32   1
    37    32    33   1
    38    32    37   1
    39    33    34   1
    40    34    35   1
    41    35    36   1
    42    36    37   1
    43     3    38   1
    44     5    39   1
    45     7    40   1
    46     8    41   1
    47     9    42   1
    48    11    43   1
    49    11    44   1
    50    12    45   1
    51    12    46   1
    52    14    47   1
    53    14    48   1
    54    15    49   1
    55    15    50   1
    56    17    51   1
    57    18    52   1
    58    20    53   1
    59    20    54   1
    60    20    55   1
    61    22    56   1
    62    24    57   1
    63    25    58   1
    64    29    59   1
    65    32    60   1
    66    33    61   1
    67    33    62   1
    68    34    63   1
    69    34    64   1
    70    35    65   1
    71    35    66   1
    72    36    67   1
    73    36    68   1
    74    37    69   1
    75    37    70   1
@<TRIPOS>SUBSTRUCTURE
     1  MOL      2

