@<TRIPOS>MOLECULE
3e93_ligand_067
    70    75
SMALL
GAST_HUCK
****
This file was generated by PARSER (from files_GN.cpp)

@<TRIPOS>ATOM
      1 O25        39.9874   20.7582   40.7513 O.2         1 MOL      -0.3760
      2 C22        40.5146   21.7066   40.1781 C.2         1 MOL       0.2274
      3 N24        41.3506   21.4886   39.1649 N.am        1 MOL      -0.2370
      4 C26        41.6235   20.2921   38.5591 C.ar        1 MOL       0.0536
      5 C27        40.6159   19.3639   38.2044 C.ar        1 MOL      -0.0255
      6 C29        40.8881   18.1232   37.5517 C.ar        1 MOL       0.0259
      7 C32        42.2666   17.8698   37.2896 C.ar        1 MOL      -0.0595
      8 C30        43.2799   18.7914   37.6059 C.ar        1 MOL      -0.0865
      9 C28        42.9579   20.0072   38.2248 C.ar        1 MOL      -0.0544
     10 N31        39.8826   17.2306   37.1843 N.pl3       1 MOL      -0.3075
     11 C33        38.4774   17.5706   37.3854 C.3         1 MOL       0.0499
     12 C35        37.4189   16.5882   36.8270 C.3         1 MOL       0.0673
     13 O37        37.8460   15.2362   37.0323 O.3         1 MOL      -0.3759
     14 C36        39.0373   14.9514   36.2869 C.3         1 MOL       0.0673
     15 C34        40.2073   15.9080   36.6570 C.3         1 MOL       0.0499
     16 C19        40.2693   23.0008   40.6495 C.ar        1 MOL       0.0497
     17 C23        39.9721   23.2251   42.0123 C.ar        1 MOL      -0.0479
     18 C20        39.6583   24.5073   42.4843 C.ar        1 MOL      -0.0536
     19 C18        39.5925   25.6149   41.6079 C.ar        1 MOL      -0.0326
     20 C21        39.1577   26.9242   42.1610 C.3         1 MOL      -0.0276
     21 C15        39.9045   25.4166   40.2293 C.ar        1 MOL      -0.0123
     22 C17        40.2557   24.1187   39.7801 C.ar        1 MOL      -0.0399
     23 C12        39.8183   26.4477   39.2515 C.ar        1 MOL      -0.0269
     24 C9         39.0124   26.2695   38.0934 C.ar        1 MOL      -0.0647
     25 C4         38.9271   27.2672   37.0989 C.ar        1 MOL      -0.0614
     26 C1         39.6382   28.4661   37.2765 C.ar        1 MOL       0.0282
     27 C3         40.4287   28.6496   38.4075 C.ar        1 MOL       0.1528
     28 O8         40.9895   29.8739   38.3227 O.3         1 MOL      -0.1790
     29 C7         40.5546   27.6489   39.3910 C.ar        1 MOL      -0.0179
     30 C2         39.7598   29.6348   36.5230 C.2         1 MOL       0.0534
     31 N6         40.5884   30.4449   37.2129 N.2         1 MOL      -0.1500
     32 C5         39.1379   29.9290   35.2009 C.3         1 MOL       0.0120
     33 C10        39.8880   29.2013   34.0437 C.3         1 MOL       0.0001
     34 C13        41.2171   29.9034   33.6694 C.3         1 MOL      -0.0317
     35 N16        40.9817   31.3317   33.3550 N.4         1 MOL       0.2272
     36 C14        40.3472   32.1026   34.4479 C.3         1 MOL      -0.0317
     37 C11        39.0061   31.4563   34.8910 C.3         1 MOL       0.0001
     38 H1         41.8915   22.2453   38.8811 H           1 MOL       0.2248
     39 H2         39.6562   19.6273   38.4223 H           1 MOL       0.0391
     40 H3         42.5705   17.0097   36.8385 H           1 MOL       0.0393
     41 H4         44.2546   18.5795   37.3846 H           1 MOL       0.0546
     42 H5         43.7050   20.6702   38.4535 H           1 MOL       0.0398
     43 H6         38.2665   18.5398   36.9224 H           1 MOL       0.0536
     44 H7         38.3060   17.6557   38.4636 H           1 MOL       0.0536
     45 H8         37.2374   16.7864   35.7650 H           1 MOL       0.0579
     46 H9         36.4724   16.7342   37.3503 H           1 MOL       0.0579
     47 H10        38.8201   15.0073   35.2161 H           1 MOL       0.0579
     48 H11        39.3276   13.9203   36.4981 H           1 MOL       0.0579
     49 H12        40.8141   15.3944   37.4086 H           1 MOL       0.0536
     50 H13        40.8117   16.0203   35.7523 H           1 MOL       0.0536
     51 H14        39.9830   22.4480   42.6779 H           1 MOL       0.0652
     52 H15        39.4623   24.6154   43.4834 H           1 MOL       0.0569
     53 H16        38.7956   26.8358   43.1895 H           1 MOL       0.0406
     54 H17        38.3462   27.3414   41.5624 H           1 MOL       0.0406
     55 H18        39.9973   27.6197   42.1642 H           1 MOL       0.0406
     56 H19        40.4599   23.9737   38.7860 H           1 MOL       0.0658
     57 H20        38.4794   25.4066   37.9661 H           1 MOL       0.0538
     58 H21        38.3457   27.1224   36.2683 H           1 MOL       0.0598
     59 H22        41.1788   27.7949   40.1897 H           1 MOL       0.0568
     60 H23        38.1211   29.5280   35.2369 H           1 MOL       0.0460
     61 H24        39.2473   29.1927   33.1587 H           1 MOL       0.0340
     62 H25        40.0916   28.1606   34.3103 H           1 MOL       0.0340
     63 H26        41.6447   29.4201   32.7875 H           1 MOL       0.0815
     64 H27        41.9395   29.8146   34.4848 H           1 MOL       0.0815
     65 H28        40.3742   31.3806   32.5330 H           1 MOL       0.2013
     66 H29        41.8751   31.7709   33.1247 H           1 MOL       0.2013
     67 H30        40.1644   33.1200   34.0962 H           1 MOL       0.0815
     68 H31        41.0385   32.1710   35.2913 H           1 MOL       0.0815
     69 H32        38.6143   31.9879   35.7627 H           1 MOL       0.0340
     70 H33        38.2814   31.5873   34.0813 H           1 MOL       0.0340
@<TRIPOS>BOND
     1     1     2   2
     2     2     3  am
     3     2    16   1
     4     3     4   1
     5     4     5  ar
     6     4     9  ar
     7     5     6  ar
     8     6     7  ar
     9     6    10   1
    10     7     8  ar
    11     8     9  ar
    12    10    11   1
    13    10    15   1
    14    11    12   1
    15    12    13   1
    16    13    14   1
    17    14    15   1
    18    16    17  ar
    19    16    22  ar
    20    17    18  ar
    21    18    19  ar
    22    19    20   1
    23    19    21  ar
    24    21    22  ar
    25    21    23   1
    26    23    24  ar
    27    23    29  ar
    28    24    25  ar
    29    25    26  ar
    30    26    27  ar
    31    26    30   1
    32    27    28   1
    33    27    29  ar
    34    28    31   1
    35    30    31   2
    36    30    32   1
    37    32    33   1
    38    32    37   1
    39    33    34   1
    40    34    35   1
    41    35    36   1
    42    36    37   1
    43     3    38   1
    44     5    39   1
    45     7    40   1
    46     8    41   1
    47     9    42   1
    48    11    43   1
    49    11    44   1
    50    12    45   1
    51    12    46   1
    52    14    47   1
    53    14    48   1
    54    15    49   1
    55    15    50   1
    56    17    51   1
    57    18    52   1
    58    20    53   1
    59    20    54   1
    60    20    55   1
    61    22    56   1
    62    24    57   1
    63    25    58   1
    64    29    59   1
    65    32    60   1
    66    33    61   1
    67    33    62   1
    68    34    63   1
    69    34    64   1
    70    35    65   1
    71    35    66   1
    72    36    67   1
    73    36    68   1
    74    37    69   1
    75    37    70   1
@<TRIPOS>SUBSTRUCTURE
     1  MOL      2

