@<TRIPOS>MOLECULE
3e93_ligand_087
    70    75
SMALL
GAST_HUCK
****
This file was generated by PARSER (from files_GN.cpp)

@<TRIPOS>ATOM
      1 O25        40.9547   27.5688   33.4006 O.2         1 MOL      -0.3760
      2 C22        40.4083   28.3652   34.1548 C.2         1 MOL       0.2274
      3 N24        40.3088   29.6490   33.8247 N.am        1 MOL      -0.2370
      4 C26        40.8649   30.3685   32.7975 C.ar        1 MOL       0.0536
      5 C27        42.0299   30.0152   32.0736 C.ar        1 MOL      -0.0255
      6 C29        42.6459   30.8833   31.1228 C.ar        1 MOL       0.0259
      7 C32        42.0037   32.1358   30.9149 C.ar        1 MOL      -0.0595
      8 C30        40.8246   32.4895   31.5884 C.ar        1 MOL      -0.0865
      9 C28        40.2692   31.6171   32.5346 C.ar        1 MOL      -0.0544
     10 N31        43.8137   30.5435   30.4577 N.pl3       1 MOL      -0.3075
     11 C33        44.1596   29.1420   30.2362 C.3         1 MOL       0.0499
     12 C35        45.3924   28.8782   29.3377 C.3         1 MOL       0.0673
     13 O37        46.4484   29.7745   29.7044 O.3         1 MOL      -0.3759
     14 C36        46.1014   31.1340   29.4130 C.3         1 MOL       0.0673
     15 C34        44.7799   31.5807   30.1000 C.3         1 MOL       0.0499
     16 C19        39.8552   27.8939   35.3509 C.ar        1 MOL       0.0497
     17 C23        39.6681   28.7430   36.4709 C.ar        1 MOL      -0.0479
     18 C20        39.1410   28.2508   37.6766 C.ar        1 MOL      -0.0536
     19 C18        38.7873   26.8904   37.8175 C.ar        1 MOL      -0.0326
     20 C21        38.2634   26.3968   39.1194 C.3         1 MOL      -0.0276
     21 C15        38.9721   26.0226   36.7053 C.ar        1 MOL      -0.0123
     22 C17        39.5016   26.5315   35.4990 C.ar        1 MOL      -0.0399
     23 C12        38.7026   24.6364   36.7765 C.ar        1 MOL      -0.0269
     24 C9         39.7763   23.7217   36.9154 C.ar        1 MOL      -0.0647
     25 C4         39.5309   22.3338   36.9765 C.ar        1 MOL      -0.0614
     26 C1         38.2035   21.8778   36.9178 C.ar        1 MOL       0.0282
     27 C3         37.1509   22.7724   36.7659 C.ar        1 MOL       0.1528
     28 O8         35.9999   22.0723   36.7159 O.3         1 MOL      -0.1790
     29 C7         37.3748   24.1585   36.6896 C.ar        1 MOL      -0.0179
     30 C2         37.6142   20.6156   36.9829 C.2         1 MOL       0.0534
     31 N6         36.2842   20.8005   36.8420 N.2         1 MOL      -0.1500
     32 C5         38.2977   19.3083   37.1760 C.3         1 MOL       0.0120
     33 C10        37.3154   18.1033   37.0381 C.3         1 MOL       0.0001
     34 C13        38.0109   16.7487   37.3131 C.3         1 MOL      -0.0317
     35 N16        38.6977   16.7616   38.6229 N.4         1 MOL       0.2272
     36 C14        39.6904   17.8485   38.7696 C.3         1 MOL      -0.0317
     37 C11        39.0325   19.2339   38.5503 C.3         1 MOL       0.0001
     38 H1         39.7234   30.1663   34.4008 H           1 MOL       0.2248
     39 H2         42.4928   29.1450   32.3215 H           1 MOL       0.0391
     40 H3         42.3556   32.8040   30.2284 H           1 MOL       0.0393
     41 H4         40.3780   33.3914   31.4087 H           1 MOL       0.0546
     42 H5         39.4240   31.9086   33.0363 H           1 MOL       0.0398
     43 H6         43.3109   28.6317   29.7672 H           1 MOL       0.0536
     44 H7         44.3613   28.6669   31.1977 H           1 MOL       0.0536
     45 H8         45.1311   28.9842   28.2823 H           1 MOL       0.0579
     46 H9         45.7414   27.8541   29.4886 H           1 MOL       0.0579
     47 H10        46.0217   31.2614   28.3307 H           1 MOL       0.0579
     48 H11        46.9212   31.7712   29.7520 H           1 MOL       0.0579
     49 H12        45.0529   32.1041   31.0215 H           1 MOL       0.0536
     50 H13        44.3235   32.3082   29.4293 H           1 MOL       0.0536
     51 H14        39.9349   29.7301   36.4265 H           1 MOL       0.0652
     52 H15        39.0194   28.8996   38.4583 H           1 MOL       0.0569
     53 H16        38.2210   27.1795   39.8796 H           1 MOL       0.0406
     54 H17        38.9047   25.5987   39.5005 H           1 MOL       0.0406
     55 H18        37.2550   26.0053   38.9856 H           1 MOL       0.0406
     56 H19        39.6232   25.8926   34.7055 H           1 MOL       0.0658
     57 H20        40.7411   24.0552   36.9765 H           1 MOL       0.0538
     58 H21        40.3102   21.6821   37.0560 H           1 MOL       0.0598
     59 H22        36.5839   24.7966   36.5810 H           1 MOL       0.0568
     60 H23        39.0489   19.2218   36.3878 H           1 MOL       0.0460
     61 H24        36.8835   18.0867   36.0320 H           1 MOL       0.0340
     62 H25        36.5001   18.2187   37.7575 H           1 MOL       0.0340
     63 H26        38.7314   16.5226   36.5232 H           1 MOL       0.0815
     64 H27        37.2624   15.9534   37.3244 H           1 MOL       0.0815
     65 H28        39.1689   15.8626   38.7484 H           1 MOL       0.2013
     66 H29        37.9923   16.8638   39.3564 H           1 MOL       0.2013
     67 H30        40.5059   17.7021   38.0551 H           1 MOL       0.0815
     68 H31        40.1099   17.8027   39.7768 H           1 MOL       0.0815
     69 H32        38.3206   19.4204   39.3572 H           1 MOL       0.0340
     70 H33        39.8087   19.9970   38.6088 H           1 MOL       0.0340
@<TRIPOS>BOND
     1     1     2   2
     2     2     3  am
     3     2    16   1
     4     3     4   1
     5     4     5  ar
     6     4     9  ar
     7     5     6  ar
     8     6     7  ar
     9     6    10   1
    10     7     8  ar
    11     8     9  ar
    12    10    11   1
    13    10    15   1
    14    11    12   1
    15    12    13   1
    16    13    14   1
    17    14    15   1
    18    16    17  ar
    19    16    22  ar
    20    17    18  ar
    21    18    19  ar
    22    19    20   1
    23    19    21  ar
    24    21    22  ar
    25    21    23   1
    26    23    24  ar
    27    23    29  ar
    28    24    25  ar
    29    25    26  ar
    30    26    27  ar
    31    26    30   1
    32    27    28   1
    33    27    29  ar
    34    28    31   1
    35    30    31   2
    36    30    32   1
    37    32    33   1
    38    32    37   1
    39    33    34   1
    40    34    35   1
    41    35    36   1
    42    36    37   1
    43     3    38   1
    44     5    39   1
    45     7    40   1
    46     8    41   1
    47     9    42   1
    48    11    43   1
    49    11    44   1
    50    12    45   1
    51    12    46   1
    52    14    47   1
    53    14    48   1
    54    15    49   1
    55    15    50   1
    56    17    51   1
    57    18    52   1
    58    20    53   1
    59    20    54   1
    60    20    55   1
    61    22    56   1
    62    24    57   1
    63    25    58   1
    64    29    59   1
    65    32    60   1
    66    33    61   1
    67    33    62   1
    68    34    63   1
    69    34    64   1
    70    35    65   1
    71    35    66   1
    72    36    67   1
    73    36    68   1
    74    37    69   1
    75    37    70   1
@<TRIPOS>SUBSTRUCTURE
     1  MOL      2

