@<TRIPOS>MOLECULE
3e93_ligand_059
    70    75
SMALL
GAST_HUCK
****
This file was generated by PARSER (from files_GN.cpp)

@<TRIPOS>ATOM
      1 O25        47.6444   22.2264   34.8649 O.2         1 MOL      -0.3760
      2 C22        47.4765   21.9055   33.6957 C.2         1 MOL       0.2274
      3 N24        46.5052   21.1011   33.2781 N.am        1 MOL      -0.2370
      4 C26        45.5258   20.5162   34.0290 C.ar        1 MOL       0.0536
      5 C27        45.7445   19.9594   35.3116 C.ar        1 MOL      -0.0255
      6 C29        44.6741   19.4800   36.1083 C.ar        1 MOL       0.0259
      7 C32        43.3723   19.5168   35.5483 C.ar        1 MOL      -0.0595
      8 C30        43.1535   19.9854   34.2427 C.ar        1 MOL      -0.0865
      9 C28        44.2250   20.4851   33.4881 C.ar        1 MOL      -0.0544
     10 N31        44.8953   19.0083   37.3788 N.pl3       1 MOL      -0.3075
     11 C33        46.0314   18.1660   37.7052 C.3         1 MOL       0.0499
     12 C35        45.5021   16.8303   38.2928 C.3         1 MOL       0.0673
     13 O37        44.5989   17.0741   39.3920 O.3         1 MOL      -0.3759
     14 C36        43.4787   17.9197   39.0631 C.3         1 MOL       0.0673
     15 C34        43.9708   19.2602   38.4681 C.3         1 MOL       0.0499
     16 C19        48.2455   22.5450   32.7545 C.ar        1 MOL       0.0497
     17 C23        49.2172   21.8210   32.0383 C.ar        1 MOL      -0.0479
     18 C20        50.0338   22.4744   31.1022 C.ar        1 MOL      -0.0536
     19 C18        49.8861   23.8582   30.8433 C.ar        1 MOL      -0.0326
     20 C21        50.7730   24.5123   29.8450 C.3         1 MOL      -0.0276
     21 C15        48.8871   24.5880   31.5485 C.ar        1 MOL      -0.0123
     22 C17        48.0828   23.9258   32.5045 C.ar        1 MOL      -0.0399
     23 C12        48.6621   25.9704   31.3247 C.ar        1 MOL      -0.0269
     24 C9         49.4392   26.9429   32.0046 C.ar        1 MOL      -0.0647
     25 C4         49.2315   28.3205   31.7748 C.ar        1 MOL      -0.0614
     26 C1         48.2492   28.7166   30.8484 C.ar        1 MOL       0.0282
     27 C3         47.4802   27.7624   30.1913 C.ar        1 MOL       0.1528
     28 O8         46.6085   28.4022   29.3864 O.3         1 MOL      -0.1790
     29 C7         47.6649   26.3873   30.4101 C.ar        1 MOL      -0.0179
     30 C2         47.7992   29.9531   30.3839 C.2         1 MOL       0.0534
     31 N6         46.8022   29.6903   29.5124 N.2         1 MOL      -0.1500
     32 C5         48.2857   31.3077   30.7839 C.3         1 MOL       0.0120
     33 C10        47.3611   32.4888   30.3430 C.3         1 MOL       0.0001
     34 C13        47.4641   32.8090   28.8257 C.3         1 MOL      -0.0317
     35 N16        48.8643   32.9615   28.3697 N.4         1 MOL       0.2272
     36 C14        49.7748   31.8627   28.7622 C.3         1 MOL      -0.0317
     37 C11        49.7351   31.6005   30.2879 C.3         1 MOL       0.0001
     38 H1         46.3941   21.0366   32.3149 H           1 MOL       0.2248
     39 H2         46.6959   19.9558   35.6869 H           1 MOL       0.0391
     40 H3         42.5726   19.1447   36.0628 H           1 MOL       0.0393
     41 H4         42.2125   19.9709   33.8472 H           1 MOL       0.0546
     42 H5         44.0441   20.8600   32.5540 H           1 MOL       0.0398
     43 H6         46.6654   18.6646   38.4434 H           1 MOL       0.0536
     44 H7         46.6536   17.9249   36.8401 H           1 MOL       0.0536
     45 H8         46.3391   16.2376   38.6664 H           1 MOL       0.0579
     46 H9         44.9980   16.2491   37.5142 H           1 MOL       0.0579
     47 H10        42.9209   18.1159   39.9808 H           1 MOL       0.0579
     48 H11        42.8113   17.4134   38.3604 H           1 MOL       0.0579
     49 H12        43.1091   19.8699   38.1851 H           1 MOL       0.0536
     50 H13        44.4971   19.8192   39.2475 H           1 MOL       0.0536
     51 H14        49.3577   20.8213   32.2125 H           1 MOL       0.0652
     52 H15        50.7467   21.9259   30.6145 H           1 MOL       0.0569
     53 H16        51.4858   23.8147   29.4004 H           1 MOL       0.0406
     54 H17        51.3413   25.3121   30.3236 H           1 MOL       0.0406
     55 H18        50.1694   24.9375   29.0413 H           1 MOL       0.0406
     56 H19        47.3677   24.4519   33.0202 H           1 MOL       0.0658
     57 H20        50.1638   26.6527   32.6673 H           1 MOL       0.0538
     58 H21        49.7886   29.0149   32.2753 H           1 MOL       0.0598
     59 H22        47.0847   25.7103   29.9077 H           1 MOL       0.0568
     60 H23        48.3018   31.3078   31.8785 H           1 MOL       0.0460
     61 H24        47.6542   33.3841   30.8995 H           1 MOL       0.0340
     62 H25        46.3222   32.2743   30.6051 H           1 MOL       0.0340
     63 H26        46.9359   33.7406   28.6171 H           1 MOL       0.0815
     64 H27        46.9871   32.0233   28.2388 H           1 MOL       0.0815
     65 H28        49.2374   33.8434   28.7295 H           1 MOL       0.2013
     66 H29        48.8617   32.9957   27.3485 H           1 MOL       0.2013
     67 H30        50.7906   32.1370   28.4664 H           1 MOL       0.0815
     68 H31        49.5013   30.9525   28.2209 H           1 MOL       0.0815
     69 H32        50.4089   30.7760   30.5287 H           1 MOL       0.0340
     70 H33        50.1131   32.4905   30.7993 H           1 MOL       0.0340
@<TRIPOS>BOND
     1     1     2   2
     2     2     3  am
     3     2    16   1
     4     3     4   1
     5     4     5  ar
     6     4     9  ar
     7     5     6  ar
     8     6     7  ar
     9     6    10   1
    10     7     8  ar
    11     8     9  ar
    12    10    11   1
    13    10    15   1
    14    11    12   1
    15    12    13   1
    16    13    14   1
    17    14    15   1
    18    16    17  ar
    19    16    22  ar
    20    17    18  ar
    21    18    19  ar
    22    19    20   1
    23    19    21  ar
    24    21    22  ar
    25    21    23   1
    26    23    24  ar
    27    23    29  ar
    28    24    25  ar
    29    25    26  ar
    30    26    27  ar
    31    26    30   1
    32    27    28   1
    33    27    29  ar
    34    28    31   1
    35    30    31   2
    36    30    32   1
    37    32    33   1
    38    32    37   1
    39    33    34   1
    40    34    35   1
    41    35    36   1
    42    36    37   1
    43     3    38   1
    44     5    39   1
    45     7    40   1
    46     8    41   1
    47     9    42   1
    48    11    43   1
    49    11    44   1
    50    12    45   1
    51    12    46   1
    52    14    47   1
    53    14    48   1
    54    15    49   1
    55    15    50   1
    56    17    51   1
    57    18    52   1
    58    20    53   1
    59    20    54   1
    60    20    55   1
    61    22    56   1
    62    24    57   1
    63    25    58   1
    64    29    59   1
    65    32    60   1
    66    33    61   1
    67    33    62   1
    68    34    63   1
    69    34    64   1
    70    35    65   1
    71    35    66   1
    72    36    67   1
    73    36    68   1
    74    37    69   1
    75    37    70   1
@<TRIPOS>SUBSTRUCTURE
     1  MOL      2

