@<TRIPOS>MOLECULE
3e93_ligand_058
    70    75
SMALL
GAST_HUCK
****
This file was generated by PARSER (from files_GN.cpp)

@<TRIPOS>ATOM
      1 O25        38.2695   17.5398   43.0770 O.2         1 MOL      -0.3760
      2 C22        37.1918   17.9702   42.6737 C.2         1 MOL       0.2274
      3 N24        37.0142   18.1405   41.3619 N.am        1 MOL      -0.2370
      4 C26        37.8885   17.9901   40.3217 C.ar        1 MOL       0.0536
      5 C27        39.2636   18.3117   40.3834 C.ar        1 MOL      -0.0255
      6 C29        40.1516   18.1489   39.2781 C.ar        1 MOL       0.0259
      7 C32        39.5525   17.6590   38.0798 C.ar        1 MOL      -0.0595
      8 C30        38.1781   17.3899   37.9796 C.ar        1 MOL      -0.0865
      9 C28        37.3486   17.5624   39.0948 C.ar        1 MOL      -0.0544
     10 N31        41.5055   18.4643   39.3553 N.pl3       1 MOL      -0.3075
     11 C33        42.0115   19.3643   40.3920 C.3         1 MOL       0.0499
     12 C35        43.5377   19.6558   40.4315 C.3         1 MOL       0.0673
     13 O37        44.1737   19.4948   39.1550 O.3         1 MOL      -0.3759
     14 C36        43.9276   18.1934   38.6120 C.3         1 MOL       0.0673
     15 C34        42.4232   18.0353   38.3085 C.3         1 MOL       0.0499
     16 C19        36.1580   18.2206   43.5990 C.ar        1 MOL       0.0497
     17 C23        34.8334   18.5150   43.1863 C.ar        1 MOL      -0.0479
     18 C20        33.8179   18.7949   44.1141 C.ar        1 MOL      -0.0536
     19 C18        34.0762   18.8106   45.5002 C.ar        1 MOL      -0.0326
     20 C21        32.9657   19.1289   46.4371 C.3         1 MOL      -0.0276
     21 C15        35.3955   18.5127   45.9439 C.ar        1 MOL      -0.0123
     22 C17        36.4033   18.2072   44.9975 C.ar        1 MOL      -0.0399
     23 C12        35.7489   18.5539   47.3161 C.ar        1 MOL      -0.0269
     24 C9         35.8289   19.7980   47.9916 C.ar        1 MOL      -0.0647
     25 C4         36.0961   19.8569   49.3756 C.ar        1 MOL      -0.0614
     26 C1         36.3236   18.6552   50.0700 C.ar        1 MOL       0.0282
     27 C3         36.3039   17.4385   49.3962 C.ar        1 MOL       0.1528
     28 O8         36.5889   16.4604   50.2800 O.3         1 MOL      -0.1790
     29 C7         36.0186   17.3576   48.0255 C.ar        1 MOL      -0.0179
     30 C2         36.6081   18.3488   51.3977 C.2         1 MOL       0.0534
     31 N6         36.7672   17.0075   51.4563 N.2         1 MOL      -0.1500
     32 C5         36.7107   19.2878   52.5462 C.3         1 MOL       0.0120
     33 C10        37.2080   18.5951   53.8534 C.3         1 MOL       0.0001
     34 C13        37.2359   19.5728   55.0563 C.3         1 MOL      -0.0317
     35 N16        35.9267   20.2403   55.2373 N.4         1 MOL       0.2272
     36 C14        35.4343   20.9459   54.0334 C.3         1 MOL      -0.0317
     37 C11        35.3461   19.9858   52.8196 C.3         1 MOL       0.0001
     38 H1         36.1181   18.3717   41.0836 H           1 MOL       0.2248
     39 H2         39.6103   18.6730   41.2657 H           1 MOL       0.0391
     40 H3         40.0997   17.5379   37.2281 H           1 MOL       0.0393
     41 H4         37.7805   17.0778   37.0892 H           1 MOL       0.0546
     42 H5         36.3473   17.3648   39.0056 H           1 MOL       0.0398
     43 H6         41.7689   18.9732   41.3818 H           1 MOL       0.0536
     44 H7         41.4907   20.3205   40.2743 H           1 MOL       0.0536
     45 H8         44.0242   19.0007   41.1612 H           1 MOL       0.0579
     46 H9         43.7075   20.6816   40.7644 H           1 MOL       0.0579
     47 H10        44.2635   17.4068   39.2983 H           1 MOL       0.0579
     48 H11        44.4996   18.0879   37.6896 H           1 MOL       0.0579
     49 H12        42.2050   18.6139   37.4013 H           1 MOL       0.0536
     50 H13        42.2639   16.9760   38.0859 H           1 MOL       0.0536
     51 H14        34.5745   18.5316   42.1974 H           1 MOL       0.0652
     52 H15        32.8804   19.0008   43.7610 H           1 MOL       0.0569
     53 H16        32.0106   19.2654   45.9231 H           1 MOL       0.0406
     54 H17        33.1865   20.0539   46.9712 H           1 MOL       0.0406
     55 H18        32.8452   18.3173   47.1573 H           1 MOL       0.0406
     56 H19        37.3467   18.0042   45.3438 H           1 MOL       0.0658
     57 H20        35.6840   20.6689   47.4743 H           1 MOL       0.0538
     58 H21        36.1341   20.7581   49.8603 H           1 MOL       0.0598
     59 H22        35.9919   16.4439   47.5669 H           1 MOL       0.0568
     60 H23        37.4465   20.0531   52.2689 H           1 MOL       0.0460
     61 H24        38.2128   18.1992   53.7017 H           1 MOL       0.0340
     62 H25        36.5457   17.7601   54.1037 H           1 MOL       0.0340
     63 H26        38.0184   20.3223   54.9125 H           1 MOL       0.0815
     64 H27        37.4657   19.0152   55.9659 H           1 MOL       0.0815
     65 H28        36.0086   20.9165   55.9989 H           1 MOL       0.2013
     66 H29        35.2367   19.5347   55.5030 H           1 MOL       0.2013
     67 H30        36.1025   21.7796   53.7986 H           1 MOL       0.0815
     68 H31        34.4445   21.3516   54.2515 H           1 MOL       0.0815
     69 H32        34.5797   19.2317   53.0261 H           1 MOL       0.0340
     70 H33        35.0238   20.5536   51.9435 H           1 MOL       0.0340
@<TRIPOS>BOND
     1     1     2   2
     2     2     3  am
     3     2    16   1
     4     3     4   1
     5     4     5  ar
     6     4     9  ar
     7     5     6  ar
     8     6     7  ar
     9     6    10   1
    10     7     8  ar
    11     8     9  ar
    12    10    11   1
    13    10    15   1
    14    11    12   1
    15    12    13   1
    16    13    14   1
    17    14    15   1
    18    16    17  ar
    19    16    22  ar
    20    17    18  ar
    21    18    19  ar
    22    19    20   1
    23    19    21  ar
    24    21    22  ar
    25    21    23   1
    26    23    24  ar
    27    23    29  ar
    28    24    25  ar
    29    25    26  ar
    30    26    27  ar
    31    26    30   1
    32    27    28   1
    33    27    29  ar
    34    28    31   1
    35    30    31   2
    36    30    32   1
    37    32    33   1
    38    32    37   1
    39    33    34   1
    40    34    35   1
    41    35    36   1
    42    36    37   1
    43     3    38   1
    44     5    39   1
    45     7    40   1
    46     8    41   1
    47     9    42   1
    48    11    43   1
    49    11    44   1
    50    12    45   1
    51    12    46   1
    52    14    47   1
    53    14    48   1
    54    15    49   1
    55    15    50   1
    56    17    51   1
    57    18    52   1
    58    20    53   1
    59    20    54   1
    60    20    55   1
    61    22    56   1
    62    24    57   1
    63    25    58   1
    64    29    59   1
    65    32    60   1
    66    33    61   1
    67    33    62   1
    68    34    63   1
    69    34    64   1
    70    35    65   1
    71    35    66   1
    72    36    67   1
    73    36    68   1
    74    37    69   1
    75    37    70   1
@<TRIPOS>SUBSTRUCTURE
     1  MOL      2

