@<TRIPOS>MOLECULE
3e93_ligand_030
    70    75
SMALL
GAST_HUCK
****
This file was generated by PARSER (from files_GN.cpp)

@<TRIPOS>ATOM
      1 O25        37.4871   21.0367   37.2860 O.2         1 MOL      -0.3760
      2 C22        37.8467   20.9042   38.4539 C.2         1 MOL       0.2274
      3 N24        37.5513   19.7639   39.0782 N.am        1 MOL      -0.2370
      4 C26        37.0741   18.5806   38.5807 C.ar        1 MOL       0.0536
      5 C27        36.3793   17.7487   39.4844 C.ar        1 MOL      -0.0255
      6 C29        35.9319   16.4461   39.1357 C.ar        1 MOL       0.0259
      7 C32        36.2194   15.9928   37.8234 C.ar        1 MOL      -0.0595
      8 C30        36.9056   16.8047   36.9030 C.ar        1 MOL      -0.0865
      9 C28        37.3316   18.0892   37.2783 C.ar        1 MOL      -0.0544
     10 N31        35.2852   15.6512   40.0465 N.pl3       1 MOL      -0.3075
     11 C33        35.5698   14.2290   40.1688 C.3         1 MOL       0.0499
     12 C35        36.1209   13.9596   41.5963 C.3         1 MOL       0.0673
     13 O37        35.2282   14.4807   42.6063 O.3         1 MOL      -0.3759
     14 C36        34.9419   15.8867   42.4580 C.3         1 MOL       0.0673
     15 C34        34.3769   16.1781   41.0481 C.3         1 MOL       0.0499
     16 C19        38.5407   21.9479   39.0919 C.ar        1 MOL       0.0497
     17 C23        39.1489   21.7841   40.3635 C.ar        1 MOL      -0.0479
     18 C20        39.9483   22.7933   40.9302 C.ar        1 MOL      -0.0536
     19 C18        40.1913   24.0072   40.2513 C.ar        1 MOL      -0.0326
     20 C21        41.1599   24.9723   40.8460 C.3         1 MOL      -0.0276
     21 C15        39.5508   24.2274   38.9995 C.ar        1 MOL      -0.0123
     22 C17        38.7365   23.2010   38.4520 C.ar        1 MOL      -0.0399
     23 C12        39.7525   25.4031   38.2145 C.ar        1 MOL      -0.0269
     24 C9         39.9901   25.2951   36.8138 C.ar        1 MOL      -0.0647
     25 C4         40.1367   26.4399   36.0044 C.ar        1 MOL      -0.0614
     26 C1         40.0700   27.7098   36.6057 C.ar        1 MOL       0.0282
     27 C3         39.8524   27.8211   37.9740 C.ar        1 MOL       0.1528
     28 O8         39.8355   29.1345   38.2852 O.3         1 MOL      -0.1790
     29 C7         39.6730   26.6939   38.7948 C.ar        1 MOL      -0.0179
     30 C2         40.1543   29.0145   36.1224 C.2         1 MOL       0.0534
     31 N6         40.0174   29.8286   37.1915 N.2         1 MOL      -0.1500
     32 C5         40.3125   29.4559   34.7081 C.3         1 MOL       0.0120
     33 C10        41.5520   30.3799   34.4979 C.3         1 MOL       0.0001
     34 C13        41.2968   31.8483   34.9245 C.3         1 MOL      -0.0317
     35 N16        40.0579   32.3842   34.3200 N.4         1 MOL       0.2272
     36 C14        38.8436   31.5923   34.6143 C.3         1 MOL      -0.0317
     37 C11        39.0164   30.1226   34.1515 C.3         1 MOL       0.0001
     38 H1         37.6839   19.7707   40.0387 H           1 MOL       0.2248
     39 H2         36.2514   18.0783   40.4426 H           1 MOL       0.0391
     40 H3         35.9019   15.0730   37.5103 H           1 MOL       0.0393
     41 H4         37.1022   16.4556   35.9602 H           1 MOL       0.0546
     42 H5         37.8736   18.6380   36.6066 H           1 MOL       0.0398
     43 H6         36.3157   13.8675   39.4571 H           1 MOL       0.0536
     44 H7         34.6517   13.6578   40.0150 H           1 MOL       0.0536
     45 H8         37.1115   14.4132   41.7074 H           1 MOL       0.0579
     46 H9         36.2240   12.8843   41.7487 H           1 MOL       0.0579
     47 H10        35.8463   16.4789   42.6323 H           1 MOL       0.0579
     48 H11        34.2029   16.1698   43.2118 H           1 MOL       0.0579
     49 H12        33.4118   15.6729   40.9422 H           1 MOL       0.0536
     50 H13        34.1739   17.2457   40.9408 H           1 MOL       0.0536
     51 H14        39.0609   20.9079   40.8854 H           1 MOL       0.0652
     52 H15        40.3819   22.6105   41.8398 H           1 MOL       0.0569
     53 H16        41.7277   24.5298   41.6727 H           1 MOL       0.0406
     54 H17        40.6210   25.8440   41.2233 H           1 MOL       0.0406
     55 H18        41.8796   25.2872   40.0860 H           1 MOL       0.0406
     56 H19        38.2906   23.3682   37.5424 H           1 MOL       0.0658
     57 H20        40.0605   24.3732   36.3715 H           1 MOL       0.0538
     58 H21        40.2975   26.3415   34.9989 H           1 MOL       0.0598
     59 H22        39.4623   26.8153   39.7913 H           1 MOL       0.0568
     60 H23        40.4850   28.5617   34.1020 H           1 MOL       0.0460
     61 H24        41.8057   30.3803   33.4347 H           1 MOL       0.0340
     62 H25        42.4167   29.9860   35.0396 H           1 MOL       0.0340
     63 H26        42.1272   32.4700   34.5857 H           1 MOL       0.0815
     64 H27        41.2408   31.9238   36.0134 H           1 MOL       0.0815
     65 H28        40.1807   32.4158   33.3054 H           1 MOL       0.2013
     66 H29        39.9183   33.3378   34.6590 H           1 MOL       0.2013
     67 H30        38.0001   32.0396   34.0835 H           1 MOL       0.0815
     68 H31        38.6235   31.6376   35.6829 H           1 MOL       0.0815
     69 H32        38.1351   29.5427   34.4413 H           1 MOL       0.0340
     70 H33        39.0642   30.1188   33.0589 H           1 MOL       0.0340
@<TRIPOS>BOND
     1     1     2   2
     2     2     3  am
     3     2    16   1
     4     3     4   1
     5     4     5  ar
     6     4     9  ar
     7     5     6  ar
     8     6     7  ar
     9     6    10   1
    10     7     8  ar
    11     8     9  ar
    12    10    11   1
    13    10    15   1
    14    11    12   1
    15    12    13   1
    16    13    14   1
    17    14    15   1
    18    16    17  ar
    19    16    22  ar
    20    17    18  ar
    21    18    19  ar
    22    19    20   1
    23    19    21  ar
    24    21    22  ar
    25    21    23   1
    26    23    24  ar
    27    23    29  ar
    28    24    25  ar
    29    25    26  ar
    30    26    27  ar
    31    26    30   1
    32    27    28   1
    33    27    29  ar
    34    28    31   1
    35    30    31   2
    36    30    32   1
    37    32    33   1
    38    32    37   1
    39    33    34   1
    40    34    35   1
    41    35    36   1
    42    36    37   1
    43     3    38   1
    44     5    39   1
    45     7    40   1
    46     8    41   1
    47     9    42   1
    48    11    43   1
    49    11    44   1
    50    12    45   1
    51    12    46   1
    52    14    47   1
    53    14    48   1
    54    15    49   1
    55    15    50   1
    56    17    51   1
    57    18    52   1
    58    20    53   1
    59    20    54   1
    60    20    55   1
    61    22    56   1
    62    24    57   1
    63    25    58   1
    64    29    59   1
    65    32    60   1
    66    33    61   1
    67    33    62   1
    68    34    63   1
    69    34    64   1
    70    35    65   1
    71    35    66   1
    72    36    67   1
    73    36    68   1
    74    37    69   1
    75    37    70   1
@<TRIPOS>SUBSTRUCTURE
     1  MOL      2

