@<TRIPOS>MOLECULE
3e93_ligand_057
    70    75
SMALL
GAST_HUCK
****
This file was generated by PARSER (from files_GN.cpp)

@<TRIPOS>ATOM
      1 O25        37.1376   16.4451   39.0840 O.2         1 MOL      -0.3760
      2 C22        37.3762   17.4866   39.7141 C.2         1 MOL       0.2274
      3 N24        36.5033   17.9306   40.6254 N.am        1 MOL      -0.2370
      4 C26        35.3744   17.3491   41.1690 C.ar        1 MOL       0.0536
      5 C27        34.8858   17.8729   42.4003 C.ar        1 MOL      -0.0255
      6 C29        33.8591   17.2241   43.1460 C.ar        1 MOL       0.0259
      7 C32        33.2877   16.0510   42.5867 C.ar        1 MOL      -0.0595
      8 C30        33.6685   15.5804   41.3268 C.ar        1 MOL      -0.0865
      9 C28        34.6925   16.2300   40.6106 C.ar        1 MOL      -0.0544
     10 N31        33.4186   17.6724   44.3649 N.pl3       1 MOL      -0.3075
     11 C33        33.1512   16.7638   45.4716 C.3         1 MOL       0.0499
     12 C35        33.9626   17.2272   46.7091 C.3         1 MOL       0.0673
     13 O37        33.7155   18.6223   47.0072 O.3         1 MOL      -0.3759
     14 C36        33.9825   19.5086   45.8973 C.3         1 MOL       0.0673
     15 C34        33.1907   19.0788   44.6350 C.3         1 MOL       0.0499
     16 C19        38.5704   18.1583   39.4210 C.ar        1 MOL       0.0497
     17 C23        39.6829   17.4534   38.8930 C.ar        1 MOL      -0.0479
     18 C20        40.8942   18.1007   38.6058 C.ar        1 MOL      -0.0536
     19 C18        41.0539   19.4907   38.8376 C.ar        1 MOL      -0.0326
     20 C21        42.3654   20.1343   38.5620 C.3         1 MOL      -0.0276
     21 C15        39.9474   20.2174   39.3529 C.ar        1 MOL      -0.0123
     22 C17        38.7344   19.5543   39.6474 C.ar        1 MOL      -0.0399
     23 C12        40.0240   21.6035   39.5827 C.ar        1 MOL      -0.0269
     24 C9         40.2589   22.0982   40.8901 C.ar        1 MOL      -0.0647
     25 C4         40.3461   23.4867   41.1217 C.ar        1 MOL      -0.0614
     26 C1         40.1784   24.3683   40.0413 C.ar        1 MOL       0.0282
     27 C3         39.9182   23.8767   38.7681 C.ar        1 MOL       0.1528
     28 O8         39.7629   24.9189   37.9262 O.3         1 MOL      -0.1790
     29 C7         39.8402   22.5036   38.5080 C.ar        1 MOL      -0.0179
     30 C2         40.1768   25.7532   39.9055 C.2         1 MOL       0.0534
     31 N6         39.9096   26.0238   38.6114 N.2         1 MOL      -0.1500
     32 C5         40.3689   26.7805   40.9558 C.3         1 MOL       0.0120
     33 C10        39.0012   27.3984   41.3656 C.3         1 MOL       0.0001
     34 C13        39.1753   28.5252   42.4178 C.3         1 MOL      -0.0317
     35 N16        40.1384   29.5517   41.9592 N.4         1 MOL       0.2272
     36 C14        41.4663   29.0141   41.5852 C.3         1 MOL      -0.0317
     37 C11        41.3494   27.9049   40.5058 C.3         1 MOL       0.0001
     38 H1         36.7811   18.7367   41.1018 H           1 MOL       0.2248
     39 H2         35.3549   18.6946   42.8045 H           1 MOL       0.0391
     40 H3         32.5404   15.5552   43.0756 H           1 MOL       0.0393
     41 H4         33.2095   14.7628   40.9178 H           1 MOL       0.0546
     42 H5         34.9230   15.8683   39.6843 H           1 MOL       0.0398
     43 H6         33.4391   15.7283   45.2626 H           1 MOL       0.0536
     44 H7         32.0825   16.7740   45.7123 H           1 MOL       0.0536
     45 H8         35.0335   17.0691   46.5356 H           1 MOL       0.0579
     46 H9         33.6729   16.6370   47.5808 H           1 MOL       0.0579
     47 H10        35.0579   19.5322   45.6761 H           1 MOL       0.0579
     48 H11        33.6738   20.5153   46.1869 H           1 MOL       0.0579
     49 H12        32.1202   19.2180   44.8296 H           1 MOL       0.0536
     50 H13        33.4546   19.7253   43.7945 H           1 MOL       0.0536
     51 H14        39.6310   16.4407   38.7448 H           1 MOL       0.0652
     52 H15        41.6660   17.5445   38.2424 H           1 MOL       0.0569
     53 H16        43.1189   19.4308   38.1991 H           1 MOL       0.0406
     54 H17        42.7470   20.5832   39.4826 H           1 MOL       0.0406
     55 H18        42.2540   20.9232   37.8119 H           1 MOL       0.0406
     56 H19        37.9516   20.1003   40.0124 H           1 MOL       0.0658
     57 H20        40.3666   21.4506   41.6734 H           1 MOL       0.0538
     58 H21        40.5202   23.8354   42.0645 H           1 MOL       0.0598
     59 H22        39.6472   22.1703   37.5594 H           1 MOL       0.0568
     60 H23        40.7981   26.3014   41.8394 H           1 MOL       0.0460
     61 H24        38.3542   26.6222   41.7820 H           1 MOL       0.0340
     62 H25        38.5058   27.8188   40.4844 H           1 MOL       0.0340
     63 H26        39.5170   28.1004   43.3675 H           1 MOL       0.0815
     64 H27        38.2110   29.0077   42.5932 H           1 MOL       0.0815
     65 H28        40.2628   30.2366   42.7062 H           1 MOL       0.2013
     66 H29        39.7423   30.0275   41.1469 H           1 MOL       0.2013
     67 H30        41.9635   28.6187   42.4758 H           1 MOL       0.0815
     68 H31        42.0725   29.8349   41.1983 H           1 MOL       0.0815
     69 H32        40.9920   28.3665   39.5794 H           1 MOL       0.0340
     70 H33        42.3386   27.4839   40.3095 H           1 MOL       0.0340
@<TRIPOS>BOND
     1     1     2   2
     2     2     3  am
     3     2    16   1
     4     3     4   1
     5     4     5  ar
     6     4     9  ar
     7     5     6  ar
     8     6     7  ar
     9     6    10   1
    10     7     8  ar
    11     8     9  ar
    12    10    11   1
    13    10    15   1
    14    11    12   1
    15    12    13   1
    16    13    14   1
    17    14    15   1
    18    16    17  ar
    19    16    22  ar
    20    17    18  ar
    21    18    19  ar
    22    19    20   1
    23    19    21  ar
    24    21    22  ar
    25    21    23   1
    26    23    24  ar
    27    23    29  ar
    28    24    25  ar
    29    25    26  ar
    30    26    27  ar
    31    26    30   1
    32    27    28   1
    33    27    29  ar
    34    28    31   1
    35    30    31   2
    36    30    32   1
    37    32    33   1
    38    32    37   1
    39    33    34   1
    40    34    35   1
    41    35    36   1
    42    36    37   1
    43     3    38   1
    44     5    39   1
    45     7    40   1
    46     8    41   1
    47     9    42   1
    48    11    43   1
    49    11    44   1
    50    12    45   1
    51    12    46   1
    52    14    47   1
    53    14    48   1
    54    15    49   1
    55    15    50   1
    56    17    51   1
    57    18    52   1
    58    20    53   1
    59    20    54   1
    60    20    55   1
    61    22    56   1
    62    24    57   1
    63    25    58   1
    64    29    59   1
    65    32    60   1
    66    33    61   1
    67    33    62   1
    68    34    63   1
    69    34    64   1
    70    35    65   1
    71    35    66   1
    72    36    67   1
    73    36    68   1
    74    37    69   1
    75    37    70   1
@<TRIPOS>SUBSTRUCTURE
     1  MOL      2

