@<TRIPOS>MOLECULE
3e93_ligand_061
    70    75
SMALL
GAST_HUCK
****
This file was generated by PARSER (from files_GN.cpp)

@<TRIPOS>ATOM
      1 O25        36.4521   17.9532   40.7053 O.2         1 MOL      -0.3760
      2 C22        36.3659   19.1736   40.7913 C.2         1 MOL       0.2274
      3 N24        35.7196   19.6999   41.8346 N.am        1 MOL      -0.2370
      4 C26        35.1834   19.0455   42.9118 C.ar        1 MOL       0.0536
      5 C27        35.8605   18.0192   43.6139 C.ar        1 MOL      -0.0255
      6 C29        35.2923   17.4306   44.7637 C.ar        1 MOL       0.0259
      7 C32        34.0269   17.8622   45.2102 C.ar        1 MOL      -0.0595
      8 C30        33.3378   18.8669   44.5122 C.ar        1 MOL      -0.0865
      9 C28        33.9272   19.4777   43.3895 C.ar        1 MOL      -0.0544
     10 N31        35.9622   16.4696   45.4535 N.pl3       1 MOL      -0.3075
     11 C33        36.0808   15.1362   44.9198 C.3         1 MOL       0.0499
     12 C35        37.5739   14.7384   44.8483 C.3         1 MOL       0.0673
     13 O37        38.2337   14.9844   46.1089 O.3         1 MOL      -0.3759
     14 C36        38.1283   16.3532   46.5601 C.3         1 MOL       0.0673
     15 C34        36.6446   16.7854   46.6808 C.3         1 MOL       0.0499
     16 C19        36.8824   19.9769   39.7623 C.ar        1 MOL       0.0497
     17 C23        37.0136   19.4724   38.4436 C.ar        1 MOL      -0.0479
     18 C20        37.5729   20.2466   37.4118 C.ar        1 MOL      -0.0536
     19 C18        38.0293   21.5606   37.6566 C.ar        1 MOL      -0.0326
     20 C21        38.6724   22.3193   36.5513 C.3         1 MOL      -0.0276
     21 C15        37.9044   22.0981   38.9675 C.ar        1 MOL      -0.0123
     22 C17        37.3308   21.3059   39.9926 C.ar        1 MOL      -0.0399
     23 C12        38.4087   23.3811   39.3037 C.ar        1 MOL      -0.0269
     24 C9         39.4486   23.5002   40.2610 C.ar        1 MOL      -0.0647
     25 C4         39.9990   24.7531   40.5792 C.ar        1 MOL      -0.0614
     26 C1         39.4827   25.9104   39.9561 C.ar        1 MOL       0.0282
     27 C3         38.4608   25.7936   39.0201 C.ar        1 MOL       0.1528
     28 O8         38.1643   27.0299   38.5644 O.3         1 MOL      -0.1790
     29 C7         37.9092   24.5522   38.6774 C.ar        1 MOL      -0.0179
     30 C2         39.7634   27.2693   40.0491 C.2         1 MOL       0.0534
     31 N6         38.9370   27.8884   39.1750 N.2         1 MOL      -0.1500
     32 C5         40.7836   27.9375   40.9109 C.3         1 MOL       0.0120
     33 C10        40.6081   27.6250   42.4301 C.3         1 MOL       0.0001
     34 C13        39.3726   28.3418   43.0243 C.3         1 MOL      -0.0317
     35 N16        39.4709   29.7989   42.8165 N.4         1 MOL       0.2272
     36 C14        39.6433   30.2145   41.4055 C.3         1 MOL      -0.0317
     37 C11        40.8417   29.4917   40.7341 C.3         1 MOL       0.0001
     38 H1         35.5297   20.6510   41.7921 H           1 MOL       0.2248
     39 H2         36.7958   17.7274   43.3137 H           1 MOL       0.0391
     40 H3         33.5961   17.4302   46.0299 H           1 MOL       0.0393
     41 H4         32.4115   19.1681   44.8320 H           1 MOL       0.0546
     42 H5         33.4178   20.2241   42.9037 H           1 MOL       0.0398
     43 H6         35.6288   15.0343   43.9284 H           1 MOL       0.0536
     44 H7         35.5605   14.4506   45.5930 H           1 MOL       0.0536
     45 H8         38.0683   15.2932   44.0479 H           1 MOL       0.0579
     46 H9         37.6523   13.6736   44.6207 H           1 MOL       0.0579
     47 H10        38.6577   17.0142   45.8663 H           1 MOL       0.0579
     48 H11        38.6159   16.4332   47.5353 H           1 MOL       0.0579
     49 H12        36.1769   16.2377   47.5037 H           1 MOL       0.0536
     50 H13        36.6072   17.8545   46.9261 H           1 MOL       0.0536
     51 H14        36.7066   18.5226   38.2127 H           1 MOL       0.0652
     52 H15        37.6547   19.8293   36.4809 H           1 MOL       0.0569
     53 H16        38.7696   21.7329   35.6395 H           1 MOL       0.0406
     54 H17        39.6722   22.6410   36.8466 H           1 MOL       0.0406
     55 H18        38.0756   23.1966   36.3133 H           1 MOL       0.0406
     56 H19        37.2737   21.7000   40.9329 H           1 MOL       0.0658
     57 H20        39.8396   22.6658   40.7125 H           1 MOL       0.0538
     58 H21        40.7686   24.8059   41.2444 H           1 MOL       0.0598
     59 H22        37.1673   24.5018   37.9756 H           1 MOL       0.0568
     60 H23        41.7546   27.5429   40.5954 H           1 MOL       0.0460
     61 H24        41.4989   27.9525   42.9710 H           1 MOL       0.0340
     62 H25        40.5089   26.5589   42.6140 H           1 MOL       0.0340
     63 H26        39.3204   28.1423   44.0930 H           1 MOL       0.0815
     64 H27        38.4540   27.9635   42.5733 H           1 MOL       0.0815
     65 H28        40.2715   30.1448   43.3461 H           1 MOL       0.2013
     66 H29        38.6242   30.2313   43.1923 H           1 MOL       0.2013
     67 H30        39.8124   31.2938   41.3748 H           1 MOL       0.0815
     68 H31        38.7184   30.0149   40.8618 H           1 MOL       0.0815
     69 H32        40.8826   29.7530   39.6734 H           1 MOL       0.0340
     70 H33        41.7638   29.8633   41.1882 H           1 MOL       0.0340
@<TRIPOS>BOND
     1     1     2   2
     2     2     3  am
     3     2    16   1
     4     3     4   1
     5     4     5  ar
     6     4     9  ar
     7     5     6  ar
     8     6     7  ar
     9     6    10   1
    10     7     8  ar
    11     8     9  ar
    12    10    11   1
    13    10    15   1
    14    11    12   1
    15    12    13   1
    16    13    14   1
    17    14    15   1
    18    16    17  ar
    19    16    22  ar
    20    17    18  ar
    21    18    19  ar
    22    19    20   1
    23    19    21  ar
    24    21    22  ar
    25    21    23   1
    26    23    24  ar
    27    23    29  ar
    28    24    25  ar
    29    25    26  ar
    30    26    27  ar
    31    26    30   1
    32    27    28   1
    33    27    29  ar
    34    28    31   1
    35    30    31   2
    36    30    32   1
    37    32    33   1
    38    32    37   1
    39    33    34   1
    40    34    35   1
    41    35    36   1
    42    36    37   1
    43     3    38   1
    44     5    39   1
    45     7    40   1
    46     8    41   1
    47     9    42   1
    48    11    43   1
    49    11    44   1
    50    12    45   1
    51    12    46   1
    52    14    47   1
    53    14    48   1
    54    15    49   1
    55    15    50   1
    56    17    51   1
    57    18    52   1
    58    20    53   1
    59    20    54   1
    60    20    55   1
    61    22    56   1
    62    24    57   1
    63    25    58   1
    64    29    59   1
    65    32    60   1
    66    33    61   1
    67    33    62   1
    68    34    63   1
    69    34    64   1
    70    35    65   1
    71    35    66   1
    72    36    67   1
    73    36    68   1
    74    37    69   1
    75    37    70   1
@<TRIPOS>SUBSTRUCTURE
     1  MOL      2

