@<TRIPOS>MOLECULE
3e93_ligand_083
    70    75
SMALL
GAST_HUCK
****
This file was generated by PARSER (from files_GN.cpp)

@<TRIPOS>ATOM
      1 O25        39.1023   27.8310   34.2911 O.2         1 MOL      -0.3760
      2 C22        39.8223   28.7910   34.5403 C.2         1 MOL       0.2274
      3 N24        40.2600   29.0475   35.7685 N.am        1 MOL      -0.2370
      4 C26        40.0656   28.2788   36.8989 C.ar        1 MOL       0.0536
      5 C27        39.9193   28.9439   38.1445 C.ar        1 MOL      -0.0255
      6 C29        39.6705   28.2486   39.3665 C.ar        1 MOL       0.0259
      7 C32        39.6124   26.8347   39.2872 C.ar        1 MOL      -0.0595
      8 C30        39.7991   26.1493   38.0733 C.ar        1 MOL      -0.0865
      9 C28        40.0240   26.8679   36.8924 C.ar        1 MOL      -0.0544
     10 N31        39.4975   28.9140   40.5567 N.pl3       1 MOL      -0.3075
     11 C33        38.6302   28.4213   41.6162 C.3         1 MOL       0.0499
     12 C35        39.4386   28.2373   42.9189 C.3         1 MOL       0.0673
     13 O37        40.1007   29.4707   43.2648 O.3         1 MOL      -0.3759
     14 C36        40.9546   29.9865   42.2213 C.3         1 MOL       0.0673
     15 C34        40.1864   30.1528   40.8831 C.3         1 MOL       0.0499
     16 C19        40.0531   29.6716   33.5028 C.ar        1 MOL       0.0497
     17 C23        38.9801   30.3702   32.9161 C.ar        1 MOL      -0.0479
     18 C20        39.1955   31.1932   31.7955 C.ar        1 MOL      -0.0536
     19 C18        40.4765   31.3210   31.2140 C.ar        1 MOL      -0.0326
     20 C21        40.6273   32.1537   29.9857 C.3         1 MOL      -0.0276
     21 C15        41.5626   30.6074   31.8016 C.ar        1 MOL      -0.0123
     22 C17        41.3402   29.7991   32.9472 C.ar        1 MOL      -0.0399
     23 C12        42.8809   30.6467   31.2627 C.ar        1 MOL      -0.0269
     24 C9         43.6166   31.8595   31.2541 C.ar        1 MOL      -0.0647
     25 C4         44.9069   31.9269   30.6919 C.ar        1 MOL      -0.0614
     26 C1         45.4984   30.7481   30.1971 C.ar        1 MOL       0.0282
     27 C3         44.7807   29.5540   30.1997 C.ar        1 MOL       0.1528
     28 O8         45.5527   28.5907   29.6595 O.3         1 MOL      -0.1790
     29 C7         43.4736   29.4801   30.7139 C.ar        1 MOL      -0.0179
     30 C2         46.7476   30.4320   29.6565 C.2         1 MOL       0.0534
     31 N6         46.7104   29.1148   29.3442 N.2         1 MOL      -0.1500
     32 C5         47.9216   31.3369   29.4349 C.3         1 MOL       0.0120
     33 C10        49.1327   30.5997   28.7663 C.3         1 MOL       0.0001
     34 C13        50.3469   31.5433   28.5676 C.3         1 MOL      -0.0317
     35 N16        50.7271   32.2111   29.8334 N.4         1 MOL       0.2272
     36 C14        49.6187   32.9537   30.4771 C.3         1 MOL      -0.0317
     37 C11        48.4116   32.0226   30.7523 C.3         1 MOL       0.0001
     38 H1         40.6795   29.9056   35.9029 H           1 MOL       0.2248
     39 H2         39.9249   29.9642   38.1384 H           1 MOL       0.0391
     40 H3         39.5031   26.2728   40.1321 H           1 MOL       0.0393
     41 H4         39.7911   25.1283   38.0579 H           1 MOL       0.0546
     42 H5         40.1877   26.3403   36.0325 H           1 MOL       0.0398
     43 H6         38.1180   27.4917   41.3800 H           1 MOL       0.0536
     44 H7         37.8478   29.1620   41.7975 H           1 MOL       0.0536
     45 H8         40.1700   27.4330   42.7988 H           1 MOL       0.0579
     46 H9         38.7657   27.9663   43.7343 H           1 MOL       0.0579
     47 H10        41.8069   29.3149   42.0780 H           1 MOL       0.0579
     48 H11        41.3380   30.9531   42.5494 H           1 MOL       0.0579
     49 H12        39.4595   30.9621   40.9853 H           1 MOL       0.0536
     50 H13        40.9198   30.4489   40.1312 H           1 MOL       0.0536
     51 H14        38.0337   30.2869   33.2985 H           1 MOL       0.0652
     52 H15        38.3917   31.6857   31.3981 H           1 MOL       0.0569
     53 H16        39.6730   32.5373   29.6211 H           1 MOL       0.0406
     54 H17        41.0697   31.5542   29.1894 H           1 MOL       0.0406
     55 H18        41.2699   33.0106   30.1873 H           1 MOL       0.0406
     56 H19        42.1211   29.2751   33.3590 H           1 MOL       0.0658
     57 H20        43.2191   32.7103   31.6606 H           1 MOL       0.0538
     58 H21        45.3963   32.8187   30.6675 H           1 MOL       0.0598
     59 H22        42.9712   28.5902   30.6914 H           1 MOL       0.0568
     60 H23        47.5822   32.1133   28.7385 H           1 MOL       0.0460
     61 H24        48.8388   30.1952   27.7922 H           1 MOL       0.0340
     62 H25        49.4448   29.7629   29.4017 H           1 MOL       0.0340
     63 H26        50.1171   32.3001   27.8134 H           1 MOL       0.0815
     64 H27        51.2037   30.9645   28.2210 H           1 MOL       0.0815
     65 H28        51.4919   32.8678   29.6456 H           1 MOL       0.2013
     66 H29        51.0559   31.5011   30.4954 H           1 MOL       0.2013
     67 H30        49.3127   33.7882   29.8352 H           1 MOL       0.0815
     68 H31        49.9745   33.3682   31.4264 H           1 MOL       0.0815
     69 H32        48.6992   31.2524   31.4794 H           1 MOL       0.0340
     70 H33        47.6337   32.6395   31.1891 H           1 MOL       0.0340
@<TRIPOS>BOND
     1     1     2   2
     2     2     3  am
     3     2    16   1
     4     3     4   1
     5     4     5  ar
     6     4     9  ar
     7     5     6  ar
     8     6     7  ar
     9     6    10   1
    10     7     8  ar
    11     8     9  ar
    12    10    11   1
    13    10    15   1
    14    11    12   1
    15    12    13   1
    16    13    14   1
    17    14    15   1
    18    16    17  ar
    19    16    22  ar
    20    17    18  ar
    21    18    19  ar
    22    19    20   1
    23    19    21  ar
    24    21    22  ar
    25    21    23   1
    26    23    24  ar
    27    23    29  ar
    28    24    25  ar
    29    25    26  ar
    30    26    27  ar
    31    26    30   1
    32    27    28   1
    33    27    29  ar
    34    28    31   1
    35    30    31   2
    36    30    32   1
    37    32    33   1
    38    32    37   1
    39    33    34   1
    40    34    35   1
    41    35    36   1
    42    36    37   1
    43     3    38   1
    44     5    39   1
    45     7    40   1
    46     8    41   1
    47     9    42   1
    48    11    43   1
    49    11    44   1
    50    12    45   1
    51    12    46   1
    52    14    47   1
    53    14    48   1
    54    15    49   1
    55    15    50   1
    56    17    51   1
    57    18    52   1
    58    20    53   1
    59    20    54   1
    60    20    55   1
    61    22    56   1
    62    24    57   1
    63    25    58   1
    64    29    59   1
    65    32    60   1
    66    33    61   1
    67    33    62   1
    68    34    63   1
    69    34    64   1
    70    35    65   1
    71    35    66   1
    72    36    67   1
    73    36    68   1
    74    37    69   1
    75    37    70   1
@<TRIPOS>SUBSTRUCTURE
     1  MOL      2

