@<TRIPOS>MOLECULE
3e93_ligand_005
    70    75
SMALL
GAST_HUCK
****
This file was generated by PARSER (from files_GN.cpp)

@<TRIPOS>ATOM
      1 O25        41.1596   30.1058   36.0192 O.2         1 MOL      -0.3760
      2 C22        40.2440   29.9361   35.2195 C.2         1 MOL       0.2274
      3 N24        39.4836   28.8436   35.3159 N.am        1 MOL      -0.2370
      4 C26        39.5520   27.8653   36.2632 C.ar        1 MOL       0.0536
      5 C27        39.6089   26.5188   35.8395 C.ar        1 MOL      -0.0255
      6 C29        39.5584   25.4238   36.7508 C.ar        1 MOL       0.0259
      7 C32        39.4426   25.7662   38.1285 C.ar        1 MOL      -0.0595
      8 C30        39.4155   27.1005   38.5682 C.ar        1 MOL      -0.0865
      9 C28        39.4699   28.1498   37.6413 C.ar        1 MOL      -0.0544
     10 N31        39.6039   24.1050   36.3323 N.pl3       1 MOL      -0.3075
     11 C33        39.2681   23.6746   34.9783 C.3         1 MOL       0.0499
     12 C35        40.4965   22.9826   34.3438 C.3         1 MOL       0.0673
     13 O37        40.8760   21.8535   35.1497 O.3         1 MOL      -0.3759
     14 C36        41.1818   22.1969   36.5145 C.3         1 MOL       0.0673
     15 C34        40.0415   23.0042   37.1923 C.3         1 MOL       0.0499
     16 C19        40.0859   30.8279   34.1538 C.ar        1 MOL       0.0497
     17 C23        38.8307   31.0088   33.5267 C.ar        1 MOL      -0.0479
     18 C20        38.6765   31.8925   32.4457 C.ar        1 MOL      -0.0536
     19 C18        39.7744   32.6115   31.9225 C.ar        1 MOL      -0.0326
     20 C21        39.5594   33.5298   30.7691 C.3         1 MOL      -0.0276
     21 C15        41.0555   32.4222   32.5183 C.ar        1 MOL      -0.0123
     22 C17        41.1841   31.5647   33.6397 C.ar        1 MOL      -0.0399
     23 C12        42.2319   33.0259   32.0003 C.ar        1 MOL      -0.0269
     24 C9         42.9125   34.0308   32.7410 C.ar        1 MOL      -0.0647
     25 C4         44.1054   34.6015   32.2539 C.ar        1 MOL      -0.0614
     26 C1         44.6217   34.1578   31.0226 C.ar        1 MOL       0.0282
     27 C3         43.9602   33.1742   30.2954 C.ar        1 MOL       0.1528
     28 O8         44.6636   32.9385   29.1689 O.3         1 MOL      -0.1790
     29 C7         42.7709   32.5928   30.7620 C.ar        1 MOL      -0.0179
     30 C2         45.7466   34.4901   30.2717 C.2         1 MOL       0.0534
     31 N6         45.7117   33.7212   29.1625 N.2         1 MOL      -0.1500
     32 C5         46.7995   35.4852   30.6212 C.3         1 MOL       0.0120
     33 C10        47.6738   35.9472   29.4109 C.3         1 MOL       0.0001
     34 C13        48.7434   34.9017   28.9941 C.3         1 MOL      -0.0317
     35 N16        49.5404   34.4511   30.1569 N.4         1 MOL       0.2272
     36 C14        48.7354   33.9137   31.2771 C.3         1 MOL      -0.0317
     37 C11        47.7147   34.9686   31.7752 C.3         1 MOL       0.0001
     38 H1         38.8455   28.6819   34.5985 H           1 MOL       0.2248
     39 H2         39.7395   26.3579   34.8384 H           1 MOL       0.0391
     40 H3         39.3137   25.0431   38.8379 H           1 MOL       0.0393
     41 H4         39.3181   27.3073   39.5629 H           1 MOL       0.0546
     42 H5         39.4059   29.1159   37.9681 H           1 MOL       0.0398
     43 H6         38.9169   24.4556   34.3023 H           1 MOL       0.0536
     44 H7         38.4519   22.9498   35.0346 H           1 MOL       0.0536
     45 H8         41.3255   23.6882   34.2544 H           1 MOL       0.0579
     46 H9         40.2448   22.6303   33.3429 H           1 MOL       0.0579
     47 H10        42.1071   22.7734   36.5393 H           1 MOL       0.0579
     48 H11        41.3531   21.2746   37.0727 H           1 MOL       0.0579
     49 H12        39.1932   22.3417   37.3821 H           1 MOL       0.0536
     50 H13        40.4382   23.3143   38.1610 H           1 MOL       0.0536
     51 H14        38.0045   30.5094   33.8625 H           1 MOL       0.0652
     52 H15        37.7444   31.9948   32.0335 H           1 MOL       0.0569
     53 H16        38.5016   33.6480   30.5241 H           1 MOL       0.0406
     54 H17        40.0664   33.1431   29.8837 H           1 MOL       0.0406
     55 H18        39.9551   34.5201   31.0009 H           1 MOL       0.0406
     56 H19        42.1116   31.4398   34.0616 H           1 MOL       0.0658
     57 H20        42.5400   34.3464   33.6396 H           1 MOL       0.0538
     58 H21        44.5870   35.3243   32.7901 H           1 MOL       0.0598
     59 H22        42.3190   31.8583   30.2087 H           1 MOL       0.0568
     60 H23        46.2739   36.3754   30.9798 H           1 MOL       0.0460
     61 H24        48.1913   36.8708   29.6880 H           1 MOL       0.0340
     62 H25        47.0364   36.1824   28.5533 H           1 MOL       0.0340
     63 H26        49.4211   35.3509   28.2645 H           1 MOL       0.0815
     64 H27        48.2718   34.0378   28.5201 H           1 MOL       0.0815
     65 H28        50.0806   35.2461   30.5051 H           1 MOL       0.2013
     66 H29        50.1921   33.7282   29.8449 H           1 MOL       0.2013
     67 H30        49.4099   33.6500   32.0939 H           1 MOL       0.0815
     68 H31        48.2177   33.0029   30.9630 H           1 MOL       0.0815
     69 H32        47.1187   34.5415   32.5867 H           1 MOL       0.0340
     70 H33        48.2724   35.8124   32.1921 H           1 MOL       0.0340
@<TRIPOS>BOND
     1     1     2   2
     2     2     3  am
     3     2    16   1
     4     3     4   1
     5     4     5  ar
     6     4     9  ar
     7     5     6  ar
     8     6     7  ar
     9     6    10   1
    10     7     8  ar
    11     8     9  ar
    12    10    11   1
    13    10    15   1
    14    11    12   1
    15    12    13   1
    16    13    14   1
    17    14    15   1
    18    16    17  ar
    19    16    22  ar
    20    17    18  ar
    21    18    19  ar
    22    19    20   1
    23    19    21  ar
    24    21    22  ar
    25    21    23   1
    26    23    24  ar
    27    23    29  ar
    28    24    25  ar
    29    25    26  ar
    30    26    27  ar
    31    26    30   1
    32    27    28   1
    33    27    29  ar
    34    28    31   1
    35    30    31   2
    36    30    32   1
    37    32    33   1
    38    32    37   1
    39    33    34   1
    40    34    35   1
    41    35    36   1
    42    36    37   1
    43     3    38   1
    44     5    39   1
    45     7    40   1
    46     8    41   1
    47     9    42   1
    48    11    43   1
    49    11    44   1
    50    12    45   1
    51    12    46   1
    52    14    47   1
    53    14    48   1
    54    15    49   1
    55    15    50   1
    56    17    51   1
    57    18    52   1
    58    20    53   1
    59    20    54   1
    60    20    55   1
    61    22    56   1
    62    24    57   1
    63    25    58   1
    64    29    59   1
    65    32    60   1
    66    33    61   1
    67    33    62   1
    68    34    63   1
    69    34    64   1
    70    35    65   1
    71    35    66   1
    72    36    67   1
    73    36    68   1
    74    37    69   1
    75    37    70   1
@<TRIPOS>SUBSTRUCTURE
     1  MOL      2

