@<TRIPOS>MOLECULE
3e93_ligand_079
    70    75
SMALL
GAST_HUCK
****
This file was generated by PARSER (from files_GN.cpp)

@<TRIPOS>ATOM
      1 O25        40.1743   27.0279   36.0319 O.2         1 MOL      -0.3760
      2 C22        39.9993   28.2017   36.3291 C.2         1 MOL       0.2274
      3 N24        40.0810   28.6617   37.5696 N.am        1 MOL      -0.2370
      4 C26        40.2656   27.9553   38.7247 C.ar        1 MOL       0.0536
      5 C27        39.7832   26.6429   38.9469 C.ar        1 MOL      -0.0255
      6 C29        40.0583   25.9343   40.1431 C.ar        1 MOL       0.0259
      7 C32        40.8083   26.6026   41.1436 C.ar        1 MOL      -0.0595
      8 C30        41.2175   27.9391   40.9746 C.ar        1 MOL      -0.0865
      9 C28        40.9411   28.6101   39.7718 C.ar        1 MOL      -0.0544
     10 N31        39.6309   24.6455   40.3234 N.pl3       1 MOL      -0.3075
     11 C33        40.4967   23.6407   40.9220 C.3         1 MOL       0.0499
     12 C35        40.6931   22.4886   39.8989 C.3         1 MOL       0.0673
     13 O37        39.4323   21.9923   39.4041 O.3         1 MOL      -0.3759
     14 C36        38.6066   23.0187   38.8067 C.3         1 MOL       0.0673
     15 C34        38.3603   24.1553   39.8219 C.3         1 MOL       0.0499
     16 C19        39.7899   29.0773   35.2890 C.ar        1 MOL       0.0497
     17 C23        38.4782   29.3183   34.8308 C.ar        1 MOL      -0.0479
     18 C20        38.2554   30.0822   33.6709 C.ar        1 MOL      -0.0536
     19 C18        39.3310   30.6421   32.9473 C.ar        1 MOL      -0.0326
     20 C21        39.0539   31.4705   31.7449 C.3         1 MOL      -0.0276
     21 C15        40.6527   30.4135   33.4187 C.ar        1 MOL      -0.0123
     22 C17        40.8728   29.6581   34.5945 C.ar        1 MOL      -0.0399
     23 C12        41.7844   30.9173   32.7397 C.ar        1 MOL      -0.0269
     24 C9         42.3589   30.2015   31.6568 C.ar        1 MOL      -0.0647
     25 C4         43.4748   30.7251   30.9697 C.ar        1 MOL      -0.0614
     26 C1         44.0021   31.9643   31.3802 C.ar        1 MOL       0.0282
     27 C3         43.4437   32.6544   32.4511 C.ar        1 MOL       0.1528
     28 O8         44.1238   33.8031   32.6302 O.3         1 MOL      -0.1790
     29 C7         42.3395   32.1510   33.1520 C.ar        1 MOL      -0.0179
     30 C2         45.0490   32.7672   30.9353 C.2         1 MOL       0.0534
     31 N6         45.0679   33.8606   31.7286 N.2         1 MOL      -0.1500
     32 C5         45.9753   32.4968   29.8054 C.3         1 MOL       0.0120
     33 C10        46.7726   31.1780   30.0297 C.3         1 MOL       0.0001
     34 C13        47.7826   30.9236   28.8809 C.3         1 MOL      -0.0317
     35 N16        48.6651   32.0905   28.6570 N.4         1 MOL       0.2272
     36 C14        47.9398   33.3563   28.4098 C.3         1 MOL      -0.0317
     37 C11        46.9572   33.6831   29.5552 C.3         1 MOL       0.0001
     38 H1         40.0862   29.6283   37.6576 H           1 MOL       0.2248
     39 H2         39.2633   26.1879   38.1965 H           1 MOL       0.0391
     40 H3         41.0138   26.1464   42.0349 H           1 MOL       0.0393
     41 H4         41.7232   28.4208   41.7254 H           1 MOL       0.0546
     42 H5         41.2582   29.5771   39.6632 H           1 MOL       0.0398
     43 H6         40.0373   23.2446   41.8335 H           1 MOL       0.0536
     44 H7         41.4880   24.0179   41.1849 H           1 MOL       0.0536
     45 H8         41.2242   21.6594   40.3683 H           1 MOL       0.0579
     46 H9         41.2987   22.8376   39.0563 H           1 MOL       0.0579
     47 H10        37.6557   22.5748   38.5180 H           1 MOL       0.0579
     48 H11        39.0866   23.4126   37.9060 H           1 MOL       0.0579
     49 H12        37.7547   24.9342   39.3557 H           1 MOL       0.0536
     50 H13        37.7794   23.7647   40.6601 H           1 MOL       0.0536
     51 H14        37.6773   28.9068   35.3160 H           1 MOL       0.0652
     52 H15        37.2934   30.2074   33.3455 H           1 MOL       0.0569
     53 H16        37.9869   31.5446   31.5237 H           1 MOL       0.0406
     54 H17        39.5489   31.0421   30.8718 H           1 MOL       0.0406
     55 H18        39.4342   32.4805   31.9074 H           1 MOL       0.0406
     56 H19        41.8298   29.5096   34.9276 H           1 MOL       0.0658
     57 H20        41.9661   29.3046   31.3610 H           1 MOL       0.0538
     58 H21        43.8836   30.2153   30.1828 H           1 MOL       0.0598
     59 H22        41.9460   32.6807   33.9310 H           1 MOL       0.0568
     60 H23        45.3615   32.3852   28.9069 H           1 MOL       0.0460
     61 H24        46.0882   30.3260   30.0875 H           1 MOL       0.0340
     62 H25        47.3228   31.2338   30.9742 H           1 MOL       0.0340
     63 H26        47.2449   30.6947   27.9578 H           1 MOL       0.0815
     64 H27        48.4061   30.0628   29.1298 H           1 MOL       0.0815
     65 H28        49.2311   31.9023   27.8305 H           1 MOL       0.2013
     66 H29        49.2761   32.2097   29.4672 H           1 MOL       0.2013
     67 H30        47.3919   33.2765   27.4692 H           1 MOL       0.0815
     68 H31        48.6682   34.1650   28.3122 H           1 MOL       0.0815
     69 H32        47.5325   33.8936   30.4619 H           1 MOL       0.0340
     70 H33        46.3908   34.5832   29.2943 H           1 MOL       0.0340
@<TRIPOS>BOND
     1     1     2   2
     2     2     3  am
     3     2    16   1
     4     3     4   1
     5     4     5  ar
     6     4     9  ar
     7     5     6  ar
     8     6     7  ar
     9     6    10   1
    10     7     8  ar
    11     8     9  ar
    12    10    11   1
    13    10    15   1
    14    11    12   1
    15    12    13   1
    16    13    14   1
    17    14    15   1
    18    16    17  ar
    19    16    22  ar
    20    17    18  ar
    21    18    19  ar
    22    19    20   1
    23    19    21  ar
    24    21    22  ar
    25    21    23   1
    26    23    24  ar
    27    23    29  ar
    28    24    25  ar
    29    25    26  ar
    30    26    27  ar
    31    26    30   1
    32    27    28   1
    33    27    29  ar
    34    28    31   1
    35    30    31   2
    36    30    32   1
    37    32    33   1
    38    32    37   1
    39    33    34   1
    40    34    35   1
    41    35    36   1
    42    36    37   1
    43     3    38   1
    44     5    39   1
    45     7    40   1
    46     8    41   1
    47     9    42   1
    48    11    43   1
    49    11    44   1
    50    12    45   1
    51    12    46   1
    52    14    47   1
    53    14    48   1
    54    15    49   1
    55    15    50   1
    56    17    51   1
    57    18    52   1
    58    20    53   1
    59    20    54   1
    60    20    55   1
    61    22    56   1
    62    24    57   1
    63    25    58   1
    64    29    59   1
    65    32    60   1
    66    33    61   1
    67    33    62   1
    68    34    63   1
    69    34    64   1
    70    35    65   1
    71    35    66   1
    72    36    67   1
    73    36    68   1
    74    37    69   1
    75    37    70   1
@<TRIPOS>SUBSTRUCTURE
     1  MOL      2

