@<TRIPOS>MOLECULE
3e93_ligand_027
    70    75
SMALL
GAST_HUCK
****
This file was generated by PARSER (from files_GN.cpp)

@<TRIPOS>ATOM
      1 O25        35.7341   16.7616   43.1393 O.2         1 MOL      -0.3760
      2 C22        34.8327   16.4681   42.3603 C.2         1 MOL       0.2274
      3 N24        33.5809   16.3238   42.7952 N.am        1 MOL      -0.2370
      4 C26        33.0593   16.4714   44.0555 C.ar        1 MOL       0.0536
      5 C27        33.5721   17.3382   45.0522 C.ar        1 MOL      -0.0255
      6 C29        33.0361   17.3994   46.3684 C.ar        1 MOL       0.0259
      7 C32        31.9092   16.5795   46.6332 C.ar        1 MOL      -0.0595
      8 C30        31.3378   15.7662   45.6397 C.ar        1 MOL      -0.0865
      9 C28        31.9124   15.7117   44.3593 C.ar        1 MOL      -0.0544
     10 N31        33.5759   18.2101   47.3444 N.pl3       1 MOL      -0.3075
     11 C33        33.7268   17.7793   48.7273 C.3         1 MOL       0.0499
     12 C35        35.2063   17.9500   49.1687 C.3         1 MOL       0.0673
     13 O37        35.6852   19.2853   48.8987 O.3         1 MOL      -0.3759
     14 C36        35.5473   19.6746   47.5191 C.3         1 MOL       0.0673
     15 C34        34.0668   19.5532   47.0800 C.3         1 MOL       0.0499
     16 C19        35.1752   16.2196   41.0289 C.ar        1 MOL       0.0497
     17 C23        34.5753   15.1688   40.2910 C.ar        1 MOL      -0.0479
     18 C20        34.9645   14.8900   38.9702 C.ar        1 MOL      -0.0536
     19 C18        35.9646   15.6496   38.3274 C.ar        1 MOL      -0.0326
     20 C21        36.3483   15.3307   36.9236 C.3         1 MOL      -0.0276
     21 C15        36.5702   16.7143   39.0489 C.ar        1 MOL      -0.0123
     22 C17        36.1715   16.9873   40.3786 C.ar        1 MOL      -0.0399
     23 C12        37.5823   17.5217   38.4843 C.ar        1 MOL      -0.0269
     24 C9         38.9259   17.0661   38.4529 C.ar        1 MOL      -0.0647
     25 C4         39.9472   17.8853   37.9342 C.ar        1 MOL      -0.0614
     26 C1         39.6074   19.1614   37.4438 C.ar        1 MOL       0.0282
     27 C3         38.2882   19.5981   37.4496 C.ar        1 MOL       0.1528
     28 O8         38.2445   20.8363   36.9132 O.3         1 MOL      -0.1790
     29 C7         37.2611   18.8025   37.9710 C.ar        1 MOL      -0.0179
     30 C2         40.3409   20.2135   36.9040 C.2         1 MOL       0.0534
     31 N6         39.4618   21.1911   36.5929 N.2         1 MOL      -0.1500
     32 C5         41.8138   20.2730   36.7238 C.3         1 MOL       0.0120
     33 C10        42.5436   20.1461   38.0967 C.3         1 MOL       0.0001
     34 C13        44.0796   20.2404   37.9211 C.3         1 MOL      -0.0317
     35 N16        44.4345   21.5028   37.2376 N.4         1 MOL       0.2272
     36 C14        43.8283   21.6472   35.8958 C.3         1 MOL      -0.0317
     37 C11        42.2839   21.5657   35.9847 C.3         1 MOL       0.0001
     38 H1         32.9477   16.0051   42.1349 H           1 MOL       0.2248
     39 H2         34.3776   17.9139   44.8193 H           1 MOL       0.0391
     40 H3         31.4470   16.6095   47.5441 H           1 MOL       0.0393
     41 H4         30.5072   15.2074   45.8538 H           1 MOL       0.0546
     42 H5         31.4948   15.0930   43.6593 H           1 MOL       0.0398
     43 H6         33.4581   16.7329   48.8918 H           1 MOL       0.0536
     44 H7         33.0836   18.3864   49.3714 H           1 MOL       0.0536
     45 H8         35.8362   17.2177   48.6547 H           1 MOL       0.0579
     46 H9         35.2878   17.7701   50.2431 H           1 MOL       0.0579
     47 H10        36.1854   19.0520   46.8844 H           1 MOL       0.0579
     48 H11        35.8762   20.7113   47.4182 H           1 MOL       0.0579
     49 H12        33.4718   20.2586   47.6687 H           1 MOL       0.0536
     50 H13        33.9711   19.8704   46.0403 H           1 MOL       0.0536
     51 H14        33.8638   14.5705   40.7186 H           1 MOL       0.0652
     52 H15        34.5087   14.1189   38.4790 H           1 MOL       0.0569
     53 H16        35.7710   14.4997   36.5134 H           1 MOL       0.0406
     54 H17        37.4034   15.0566   36.8845 H           1 MOL       0.0406
     55 H18        36.1877   16.2003   36.2827 H           1 MOL       0.0406
     56 H19        36.6115   17.7662   40.8794 H           1 MOL       0.0658
     57 H20        39.1710   16.1409   38.8162 H           1 MOL       0.0538
     58 H21        40.9129   17.5514   37.9214 H           1 MOL       0.0598
     59 H22        36.3065   19.1611   37.9869 H           1 MOL       0.0568
     60 H23        42.0943   19.4179   36.1022 H           1 MOL       0.0460
     61 H24        42.3025   19.1964   38.5788 H           1 MOL       0.0340
     62 H25        42.2179   20.9478   38.7662 H           1 MOL       0.0340
     63 H26        44.4545   19.3856   37.3482 H           1 MOL       0.0815
     64 H27        44.5600   20.2248   38.9009 H           1 MOL       0.0815
     65 H28        45.4503   21.5545   37.1583 H           1 MOL       0.2013
     66 H29        44.1136   22.2821   37.8166 H           1 MOL       0.2013
     67 H30        44.2119   20.8719   35.2272 H           1 MOL       0.0815
     68 H31        44.1172   22.6187   35.4935 H           1 MOL       0.0815
     69 H32        41.9237   22.4497   36.5215 H           1 MOL       0.0340
     70 H33        41.8672   21.5848   34.9734 H           1 MOL       0.0340
@<TRIPOS>BOND
     1     1     2   2
     2     2     3  am
     3     2    16   1
     4     3     4   1
     5     4     5  ar
     6     4     9  ar
     7     5     6  ar
     8     6     7  ar
     9     6    10   1
    10     7     8  ar
    11     8     9  ar
    12    10    11   1
    13    10    15   1
    14    11    12   1
    15    12    13   1
    16    13    14   1
    17    14    15   1
    18    16    17  ar
    19    16    22  ar
    20    17    18  ar
    21    18    19  ar
    22    19    20   1
    23    19    21  ar
    24    21    22  ar
    25    21    23   1
    26    23    24  ar
    27    23    29  ar
    28    24    25  ar
    29    25    26  ar
    30    26    27  ar
    31    26    30   1
    32    27    28   1
    33    27    29  ar
    34    28    31   1
    35    30    31   2
    36    30    32   1
    37    32    33   1
    38    32    37   1
    39    33    34   1
    40    34    35   1
    41    35    36   1
    42    36    37   1
    43     3    38   1
    44     5    39   1
    45     7    40   1
    46     8    41   1
    47     9    42   1
    48    11    43   1
    49    11    44   1
    50    12    45   1
    51    12    46   1
    52    14    47   1
    53    14    48   1
    54    15    49   1
    55    15    50   1
    56    17    51   1
    57    18    52   1
    58    20    53   1
    59    20    54   1
    60    20    55   1
    61    22    56   1
    62    24    57   1
    63    25    58   1
    64    29    59   1
    65    32    60   1
    66    33    61   1
    67    33    62   1
    68    34    63   1
    69    34    64   1
    70    35    65   1
    71    35    66   1
    72    36    67   1
    73    36    68   1
    74    37    69   1
    75    37    70   1
@<TRIPOS>SUBSTRUCTURE
     1  MOL      2

