@<TRIPOS>MOLECULE
3e93_ligand_055
    70    75
SMALL
GAST_HUCK
****
This file was generated by PARSER (from files_GN.cpp)

@<TRIPOS>ATOM
      1 O25        39.0525   18.1561   40.2708 O.2         1 MOL      -0.3760
      2 C22        39.8696   19.0476   40.4199 C.2         1 MOL       0.2274
      3 N24        39.5885   20.1746   41.0696 N.am        1 MOL      -0.2370
      4 C26        38.4756   20.5381   41.7625 C.ar        1 MOL       0.0536
      5 C27        37.6684   19.6452   42.5101 C.ar        1 MOL      -0.0255
      6 C29        36.6885   20.1331   43.4054 C.ar        1 MOL       0.0259
      7 C32        36.4667   21.5258   43.4804 C.ar        1 MOL      -0.0595
      8 C30        37.2049   22.4148   42.6750 C.ar        1 MOL      -0.0865
      9 C28        38.2269   21.9237   41.8507 C.ar        1 MOL      -0.0544
     10 N31        36.0084   19.2716   44.2187 N.pl3       1 MOL      -0.3075
     11 C33        35.0742   18.3159   43.6720 C.3         1 MOL       0.0499
     12 C35        33.6873   18.5680   44.3202 C.3         1 MOL       0.0673
     13 O37        33.7790   18.5774   45.7621 O.3         1 MOL      -0.3759
     14 C36        34.7263   19.5309   46.2916 C.3         1 MOL       0.0673
     15 C34        36.1240   19.3331   45.6588 C.3         1 MOL       0.0499
     16 C19        41.1266   18.9372   39.8387 C.ar        1 MOL       0.0497
     17 C23        42.2771   19.2611   40.5813 C.ar        1 MOL      -0.0479
     18 C20        43.5526   19.2233   39.9935 C.ar        1 MOL      -0.0536
     19 C18        43.7081   18.8923   38.6306 C.ar        1 MOL      -0.0326
     20 C21        45.0847   18.8716   38.0630 C.3         1 MOL      -0.0276
     21 C15        42.5500   18.5920   37.8577 C.ar        1 MOL      -0.0123
     22 C17        41.2757   18.5727   38.4810 C.ar        1 MOL      -0.0399
     23 C12        42.5966   18.4089   36.4477 C.ar        1 MOL      -0.0269
     24 C9         42.2133   17.1812   35.8522 C.ar        1 MOL      -0.0647
     25 C4         42.2527   17.0236   34.4487 C.ar        1 MOL      -0.0614
     26 C1         42.6908   18.0952   33.6544 C.ar        1 MOL       0.0282
     27 C3         43.0345   19.3086   34.2332 C.ar        1 MOL       0.1528
     28 O8         43.3868   20.1665   33.2592 O.3         1 MOL      -0.1790
     29 C7         42.9828   19.4945   35.6240 C.ar        1 MOL      -0.0179
     30 C2         42.8833   18.2698   32.2843 C.2         1 MOL       0.0534
     31 N6         43.2922   19.5438   32.1145 N.2         1 MOL      -0.1500
     32 C5         42.6596   17.2667   31.2060 C.3         1 MOL       0.0120
     33 C10        43.4534   15.9431   31.4463 C.3         1 MOL       0.0001
     34 C13        44.9661   16.1246   31.1817 C.3         1 MOL      -0.0317
     35 N16        45.1790   16.6187   29.8031 N.4         1 MOL       0.2272
     36 C14        44.5028   17.9011   29.4959 C.3         1 MOL      -0.0317
     37 C11        42.9772   17.8088   29.7734 C.3         1 MOL       0.0001
     38 H1         40.2836   20.8537   41.0444 H           1 MOL       0.2248
     39 H2         37.8758   18.6461   42.4948 H           1 MOL       0.0391
     40 H3         35.7370   21.9045   44.0881 H           1 MOL       0.0393
     41 H4         37.0168   23.4189   42.7087 H           1 MOL       0.0546
     42 H5         38.7991   22.5899   41.3209 H           1 MOL       0.0398
     43 H6         35.4089   17.3002   43.9023 H           1 MOL       0.0536
     44 H7         34.9621   18.3985   42.5861 H           1 MOL       0.0536
     45 H8         32.9975   17.7765   44.0232 H           1 MOL       0.0579
     46 H9         33.2800   19.5198   43.9660 H           1 MOL       0.0579
     47 H10        34.7959   19.3824   47.3714 H           1 MOL       0.0579
     48 H11        34.3783   20.5527   46.1134 H           1 MOL       0.0579
     49 H12        36.7944   20.1213   46.0069 H           1 MOL       0.0536
     50 H13        36.5385   18.3839   46.0115 H           1 MOL       0.0536
     51 H14        42.2060   19.5327   41.5631 H           1 MOL       0.0652
     52 H15        44.3600   19.4742   40.5670 H           1 MOL       0.0569
     53 H16        45.8532   18.9277   38.8359 H           1 MOL       0.0406
     54 H17        45.2228   19.7206   37.3943 H           1 MOL       0.0406
     55 H18        45.2425   17.9465   37.5076 H           1 MOL       0.0406
     56 H19        40.4395   18.3724   37.9218 H           1 MOL       0.0658
     57 H20        41.8977   16.3998   36.4334 H           1 MOL       0.0538
     58 H21        41.9515   16.1444   34.0359 H           1 MOL       0.0598
     59 H22        43.2212   20.4080   36.0162 H           1 MOL       0.0568
     60 H23        41.5949   17.0237   31.2298 H           1 MOL       0.0460
     61 H24        43.0735   15.1692   30.7758 H           1 MOL       0.0340
     62 H25        43.3194   15.5706   32.4514 H           1 MOL       0.0340
     63 H26        45.4819   15.1692   31.2912 H           1 MOL       0.0815
     64 H27        45.4012   16.8247   31.8995 H           1 MOL       0.0815
     65 H28        44.8270   15.9115   29.1522 H           1 MOL       0.2013
     66 H29        46.1834   16.7205   29.6470 H           1 MOL       0.2013
     67 H30        44.6662   18.1381   28.4402 H           1 MOL       0.0815
     68 H31        44.9519   18.7009   30.0874 H           1 MOL       0.0815
     69 H32        42.5303   18.7951   29.6307 H           1 MOL       0.0340
     70 H33        42.5281   17.1428   29.0310 H           1 MOL       0.0340
@<TRIPOS>BOND
     1     1     2   2
     2     2     3  am
     3     2    16   1
     4     3     4   1
     5     4     5  ar
     6     4     9  ar
     7     5     6  ar
     8     6     7  ar
     9     6    10   1
    10     7     8  ar
    11     8     9  ar
    12    10    11   1
    13    10    15   1
    14    11    12   1
    15    12    13   1
    16    13    14   1
    17    14    15   1
    18    16    17  ar
    19    16    22  ar
    20    17    18  ar
    21    18    19  ar
    22    19    20   1
    23    19    21  ar
    24    21    22  ar
    25    21    23   1
    26    23    24  ar
    27    23    29  ar
    28    24    25  ar
    29    25    26  ar
    30    26    27  ar
    31    26    30   1
    32    27    28   1
    33    27    29  ar
    34    28    31   1
    35    30    31   2
    36    30    32   1
    37    32    33   1
    38    32    37   1
    39    33    34   1
    40    34    35   1
    41    35    36   1
    42    36    37   1
    43     3    38   1
    44     5    39   1
    45     7    40   1
    46     8    41   1
    47     9    42   1
    48    11    43   1
    49    11    44   1
    50    12    45   1
    51    12    46   1
    52    14    47   1
    53    14    48   1
    54    15    49   1
    55    15    50   1
    56    17    51   1
    57    18    52   1
    58    20    53   1
    59    20    54   1
    60    20    55   1
    61    22    56   1
    62    24    57   1
    63    25    58   1
    64    29    59   1
    65    32    60   1
    66    33    61   1
    67    33    62   1
    68    34    63   1
    69    34    64   1
    70    35    65   1
    71    35    66   1
    72    36    67   1
    73    36    68   1
    74    37    69   1
    75    37    70   1
@<TRIPOS>SUBSTRUCTURE
     1  MOL      2

