@<TRIPOS>MOLECULE
3e93_ligand_076
    70    75
SMALL
GAST_HUCK
****
This file was generated by PARSER (from files_GN.cpp)

@<TRIPOS>ATOM
      1 O25        38.4006   24.8794   40.7679 O.2         1 MOL      -0.3760
      2 C22        39.4059   24.6336   40.1236 C.2         1 MOL       0.2274
      3 N24        39.9723   25.5750   39.3766 N.am        1 MOL      -0.2370
      4 C26        39.6057   26.8957   39.2189 C.ar        1 MOL       0.0536
      5 C27        39.8110   27.5069   37.9551 C.ar        1 MOL      -0.0255
      6 C29        39.4553   28.8566   37.6449 C.ar        1 MOL       0.0259
      7 C32        38.8967   29.5718   38.7503 C.ar        1 MOL      -0.0595
      8 C30        38.7319   29.0104   40.0325 C.ar        1 MOL      -0.0865
      9 C28        39.0856   27.6807   40.2598 C.ar        1 MOL      -0.0544
     10 N31        39.6112   29.4338   36.3794 N.pl3       1 MOL      -0.3075
     11 C33        39.2268   30.8025   36.0235 C.3         1 MOL       0.0499
     12 C35        40.4095   31.5742   35.3810 C.3         1 MOL       0.0673
     13 O37        40.9324   30.8590   34.2498 O.3         1 MOL      -0.3759
     14 C36        41.3191   29.5164   34.5714 C.3         1 MOL       0.0673
     15 C34        40.1371   28.7303   35.2039 C.3         1 MOL       0.0499
     16 C19        39.9211   23.3220   40.1778 C.ar        1 MOL       0.0497
     17 C23        39.6353   22.4707   41.2738 C.ar        1 MOL      -0.0479
     18 C20        40.1358   21.1609   41.3360 C.ar        1 MOL      -0.0536
     19 C18        40.9634   20.6448   40.3113 C.ar        1 MOL      -0.0326
     20 C21        41.4701   19.2521   40.4229 C.3         1 MOL      -0.0276
     21 C15        41.2607   21.4807   39.1950 C.ar        1 MOL      -0.0123
     22 C17        40.7238   22.7910   39.1437 C.ar        1 MOL      -0.0399
     23 C12        42.0530   21.0405   38.1017 C.ar        1 MOL      -0.0269
     24 C9         43.4375   20.7787   38.2621 C.ar        1 MOL      -0.0647
     25 C4         44.2224   20.3254   37.1831 C.ar        1 MOL      -0.0614
     26 C1         43.6185   20.1562   35.9220 C.ar        1 MOL       0.0282
     27 C3         42.2676   20.4454   35.7534 C.ar        1 MOL       0.1528
     28 O8         41.9422   20.2152   34.4663 O.3         1 MOL      -0.1790
     29 C7         41.4647   20.8806   36.8179 C.ar        1 MOL      -0.0179
     30 C2         44.0652   19.7263   34.6758 C.2         1 MOL       0.0534
     31 N6         43.0129   19.7912   33.8406 N.2         1 MOL      -0.1500
     32 C5         45.4198   19.2200   34.3052 C.3         1 MOL       0.0120
     33 C10        46.1373   20.1148   33.2485 C.3         1 MOL       0.0001
     34 C13        45.6537   19.8629   31.7957 C.3         1 MOL      -0.0317
     35 N16        45.6821   18.4207   31.4569 N.4         1 MOL       0.2272
     36 C14        44.9055   17.5597   32.3743 C.3         1 MOL      -0.0317
     37 C11        45.3855   17.7313   33.8393 C.3         1 MOL       0.0001
     38 H1         40.7254   25.2964   38.8396 H           1 MOL       0.2248
     39 H2         40.2089   26.9036   37.2398 H           1 MOL       0.0391
     40 H3         38.5874   30.5244   38.6665 H           1 MOL       0.0393
     41 H4         38.3422   29.5721   40.7917 H           1 MOL       0.0546
     42 H5         38.9735   27.3007   41.2021 H           1 MOL       0.0398
     43 H6         38.8605   31.4235   36.8328 H           1 MOL       0.0536
     44 H7         38.4098   30.7579   35.2938 H           1 MOL       0.0536
     45 H8         41.1934   31.7389   36.1226 H           1 MOL       0.0579
     46 H9         40.0633   32.5501   35.0289 H           1 MOL       0.0579
     47 H10        42.1720   29.5324   35.2569 H           1 MOL       0.0579
     48 H11        41.6371   29.0253   33.6495 H           1 MOL       0.0579
     49 H12        39.3403   28.6501   34.4611 H           1 MOL       0.0536
     50 H13        40.4830   27.7177   35.3773 H           1 MOL       0.0536
     51 H14        39.0606   22.8021   42.0588 H           1 MOL       0.0652
     52 H15        39.8969   20.5842   42.1476 H           1 MOL       0.0569
     53 H16        41.0401   18.7164   41.2722 H           1 MOL       0.0406
     54 H17        42.5540   19.2662   40.5463 H           1 MOL       0.0406
     55 H18        41.2229   18.6877   39.5226 H           1 MOL       0.0406
     56 H19        40.9122   23.3600   38.3140 H           1 MOL       0.0658
     57 H20        43.8839   20.9219   39.1732 H           1 MOL       0.0538
     58 H21        45.2154   20.1287   37.3175 H           1 MOL       0.0598
     59 H22        40.4707   21.0642   36.6615 H           1 MOL       0.0568
     60 H23        46.0349   19.2512   35.2094 H           1 MOL       0.0460
     61 H24        47.2116   19.8969   33.2839 H           1 MOL       0.0340
     62 H25        46.0143   21.1729   33.4960 H           1 MOL       0.0340
     63 H26        46.3143   20.3912   31.1027 H           1 MOL       0.0815
     64 H27        44.6459   20.2570   31.6564 H           1 MOL       0.0815
     65 H28        46.6520   18.0995   31.4759 H           1 MOL       0.2013
     66 H29        45.3226   18.3004   30.5071 H           1 MOL       0.2013
     67 H30        45.0440   16.5216   32.0701 H           1 MOL       0.0815
     68 H31        43.8420   17.7917   32.2844 H           1 MOL       0.0815
     69 H32        44.7480   17.1404   34.5029 H           1 MOL       0.0340
     70 H33        46.3957   17.3210   33.9101 H           1 MOL       0.0340
@<TRIPOS>BOND
     1     1     2   2
     2     2     3  am
     3     2    16   1
     4     3     4   1
     5     4     5  ar
     6     4     9  ar
     7     5     6  ar
     8     6     7  ar
     9     6    10   1
    10     7     8  ar
    11     8     9  ar
    12    10    11   1
    13    10    15   1
    14    11    12   1
    15    12    13   1
    16    13    14   1
    17    14    15   1
    18    16    17  ar
    19    16    22  ar
    20    17    18  ar
    21    18    19  ar
    22    19    20   1
    23    19    21  ar
    24    21    22  ar
    25    21    23   1
    26    23    24  ar
    27    23    29  ar
    28    24    25  ar
    29    25    26  ar
    30    26    27  ar
    31    26    30   1
    32    27    28   1
    33    27    29  ar
    34    28    31   1
    35    30    31   2
    36    30    32   1
    37    32    33   1
    38    32    37   1
    39    33    34   1
    40    34    35   1
    41    35    36   1
    42    36    37   1
    43     3    38   1
    44     5    39   1
    45     7    40   1
    46     8    41   1
    47     9    42   1
    48    11    43   1
    49    11    44   1
    50    12    45   1
    51    12    46   1
    52    14    47   1
    53    14    48   1
    54    15    49   1
    55    15    50   1
    56    17    51   1
    57    18    52   1
    58    20    53   1
    59    20    54   1
    60    20    55   1
    61    22    56   1
    62    24    57   1
    63    25    58   1
    64    29    59   1
    65    32    60   1
    66    33    61   1
    67    33    62   1
    68    34    63   1
    69    34    64   1
    70    35    65   1
    71    35    66   1
    72    36    67   1
    73    36    68   1
    74    37    69   1
    75    37    70   1
@<TRIPOS>SUBSTRUCTURE
     1  MOL      2

