@<TRIPOS>MOLECULE
3e93_ligand_089
    70    75
SMALL
GAST_HUCK
****
This file was generated by PARSER (from files_GN.cpp)

@<TRIPOS>ATOM
      1 O25        35.3547   25.3532   38.3746 O.2         1 MOL      -0.3760
      2 C22        35.9416   24.2988   38.1566 C.2         1 MOL       0.2274
      3 N24        35.7263   23.2509   38.9626 N.am        1 MOL      -0.2370
      4 C26        35.0052   23.1307   40.1329 C.ar        1 MOL       0.0536
      5 C27        35.3704   22.0709   40.9944 C.ar        1 MOL      -0.0255
      6 C29        34.8801   21.9656   42.3209 C.ar        1 MOL       0.0259
      7 C32        33.9449   22.9325   42.7536 C.ar        1 MOL      -0.0595
      8 C30        33.4670   23.9182   41.8716 C.ar        1 MOL      -0.0865
      9 C28        33.9823   24.0065   40.5722 C.ar        1 MOL      -0.0544
     10 N31        35.3245   20.9869   43.1699 N.pl3       1 MOL      -0.3075
     11 C33        35.9395   21.2971   44.4444 C.3         1 MOL       0.0499
     12 C35        35.1950   20.5847   45.6039 C.3         1 MOL       0.0673
     13 O37        34.9933   19.1864   45.3032 O.3         1 MOL      -0.3759
     14 C36        34.3329   18.9529   44.0410 C.3         1 MOL       0.0673
     15 C34        35.1549   19.5785   42.8789 C.3         1 MOL       0.0499
     16 C19        37.0086   24.3053   37.2252 C.ar        1 MOL       0.0497
     17 C23        37.7301   23.1272   36.9092 C.ar        1 MOL      -0.0479
     18 C20        38.9534   23.1860   36.2280 C.ar        1 MOL      -0.0536
     19 C18        39.5206   24.4214   35.8267 C.ar        1 MOL      -0.0326
     20 C21        40.9242   24.4338   35.3269 C.3         1 MOL      -0.0276
     21 C15        38.7525   25.6190   36.0047 C.ar        1 MOL      -0.0123
     22 C17        37.5001   25.5165   36.6628 C.ar        1 MOL      -0.0399
     23 C12        39.2458   26.9195   35.6524 C.ar        1 MOL      -0.0269
     24 C9         40.0114   27.1424   34.4816 C.ar        1 MOL      -0.0647
     25 C4         40.5471   28.4284   34.1888 C.ar        1 MOL      -0.0614
     26 C1         40.2468   29.5174   35.0438 C.ar        1 MOL       0.0282
     27 C3         39.4818   29.3016   36.1853 C.ar        1 MOL       0.1528
     28 O8         39.3306   30.4827   36.8357 O.3         1 MOL      -0.1790
     29 C7         38.9852   28.0325   36.5111 C.ar        1 MOL      -0.0179
     30 C2         40.5381   30.8827   35.0496 C.2         1 MOL       0.0534
     31 N6         39.9575   31.4015   36.1552 N.2         1 MOL      -0.1500
     32 C5         41.3503   31.6729   34.0875 C.3         1 MOL       0.0120
     33 C10        41.5645   33.1528   34.5340 C.3         1 MOL       0.0001
     34 C13        42.4933   33.9011   33.5466 C.3         1 MOL      -0.0317
     35 N16        41.9780   33.8173   32.1605 N.4         1 MOL       0.2272
     36 C14        41.7129   32.4412   31.6848 C.3         1 MOL      -0.0317
     37 C11        40.7560   31.6864   32.6482 C.3         1 MOL       0.0001
     38 H1         36.2829   22.4790   38.7766 H           1 MOL       0.2248
     39 H2         36.0913   21.4146   40.6899 H           1 MOL       0.0391
     40 H3         33.5488   22.8881   43.6910 H           1 MOL       0.0393
     41 H4         32.7535   24.5787   42.1892 H           1 MOL       0.0546
     42 H5         33.6160   24.7286   39.9568 H           1 MOL       0.0398
     43 H6         36.0001   22.3719   44.6459 H           1 MOL       0.0536
     44 H7         36.9666   20.9226   44.4145 H           1 MOL       0.0536
     45 H8         34.2351   21.0703   45.7948 H           1 MOL       0.0579
     46 H9         35.7967   20.6586   46.5122 H           1 MOL       0.0579
     47 H10        33.3221   19.3744   44.0668 H           1 MOL       0.0579
     48 H11        34.2465   17.8755   43.8964 H           1 MOL       0.0579
     49 H12        36.1335   19.0934   42.8276 H           1 MOL       0.0536
     50 H13        34.6347   19.3966   41.9338 H           1 MOL       0.0536
     51 H14        37.4044   22.2066   37.2234 H           1 MOL       0.0652
     52 H15        39.4666   22.3043   36.0806 H           1 MOL       0.0569
     53 H16        41.3957   23.4352   35.3987 H           1 MOL       0.0406
     54 H17        41.5298   25.1162   35.9273 H           1 MOL       0.0406
     55 H18        40.9452   24.7998   34.3003 H           1 MOL       0.0406
     56 H19        36.9581   26.3771   36.8093 H           1 MOL       0.0658
     57 H20        40.1969   26.3376   33.8473 H           1 MOL       0.0538
     58 H21        41.1197   28.5752   33.3656 H           1 MOL       0.0598
     59 H22        38.4465   27.9307   37.3727 H           1 MOL       0.0568
     60 H23        42.3324   31.1871   34.0593 H           1 MOL       0.0460
     61 H24        42.0000   33.1921   35.5352 H           1 MOL       0.0340
     62 H25        40.6007   33.6690   34.5671 H           1 MOL       0.0340
     63 H26        43.4988   33.4774   33.5867 H           1 MOL       0.0815
     64 H27        42.5580   34.9522   33.8334 H           1 MOL       0.0815
     65 H28        42.6544   34.2574   31.5369 H           1 MOL       0.2013
     66 H29        41.1085   34.3458   32.1139 H           1 MOL       0.2013
     67 H30        42.6585   31.9021   31.6005 H           1 MOL       0.0815
     68 H31        41.2661   32.4943   30.6909 H           1 MOL       0.0815
     69 H32        39.7852   32.1880   32.6535 H           1 MOL       0.0340
     70 H33        40.6046   30.6734   32.2758 H           1 MOL       0.0340
@<TRIPOS>BOND
     1     1     2   2
     2     2     3  am
     3     2    16   1
     4     3     4   1
     5     4     5  ar
     6     4     9  ar
     7     5     6  ar
     8     6     7  ar
     9     6    10   1
    10     7     8  ar
    11     8     9  ar
    12    10    11   1
    13    10    15   1
    14    11    12   1
    15    12    13   1
    16    13    14   1
    17    14    15   1
    18    16    17  ar
    19    16    22  ar
    20    17    18  ar
    21    18    19  ar
    22    19    20   1
    23    19    21  ar
    24    21    22  ar
    25    21    23   1
    26    23    24  ar
    27    23    29  ar
    28    24    25  ar
    29    25    26  ar
    30    26    27  ar
    31    26    30   1
    32    27    28   1
    33    27    29  ar
    34    28    31   1
    35    30    31   2
    36    30    32   1
    37    32    33   1
    38    32    37   1
    39    33    34   1
    40    34    35   1
    41    35    36   1
    42    36    37   1
    43     3    38   1
    44     5    39   1
    45     7    40   1
    46     8    41   1
    47     9    42   1
    48    11    43   1
    49    11    44   1
    50    12    45   1
    51    12    46   1
    52    14    47   1
    53    14    48   1
    54    15    49   1
    55    15    50   1
    56    17    51   1
    57    18    52   1
    58    20    53   1
    59    20    54   1
    60    20    55   1
    61    22    56   1
    62    24    57   1
    63    25    58   1
    64    29    59   1
    65    32    60   1
    66    33    61   1
    67    33    62   1
    68    34    63   1
    69    34    64   1
    70    35    65   1
    71    35    66   1
    72    36    67   1
    73    36    68   1
    74    37    69   1
    75    37    70   1
@<TRIPOS>SUBSTRUCTURE
     1  MOL      2

