@<TRIPOS>MOLECULE
3e93_ligand_008
    70    75
SMALL
GAST_HUCK
****
This file was generated by PARSER (from files_GN.cpp)

@<TRIPOS>ATOM
      1 O25        40.6867   29.5027   36.5017 O.2         1 MOL      -0.3760
      2 C22        39.7683   29.4599   35.6915 C.2         1 MOL       0.2274
      3 N24        38.8850   28.4672   35.6879 N.am        1 MOL      -0.2370
      4 C26        38.7388   27.4554   36.5871 C.ar        1 MOL       0.0536
      5 C27        38.5251   26.1517   36.0862 C.ar        1 MOL      -0.0255
      6 C29        38.1981   25.0843   36.9477 C.ar        1 MOL       0.0259
      7 C32        38.0845   25.3289   38.3301 C.ar        1 MOL      -0.0595
      8 C30        38.3510   26.6096   38.8475 C.ar        1 MOL      -0.0865
      9 C28        38.6729   27.6705   37.9819 C.ar        1 MOL      -0.0544
     10 N31        37.9890   23.8409   36.4338 N.pl3       1 MOL      -0.3075
     11 C33        39.1058   23.0006   36.0777 C.3         1 MOL       0.0499
     12 C35        38.9730   21.6634   36.8511 C.3         1 MOL       0.0673
     13 O37        37.6795   21.0685   36.6241 O.3         1 MOL      -0.3759
     14 C36        36.5753   21.9175   37.0120 C.3         1 MOL       0.0673
     15 C34        36.6595   23.2982   36.3167 C.3         1 MOL       0.0499
     16 C19        39.7480   30.3620   34.6416 C.ar        1 MOL       0.0497
     17 C23        38.5668   31.0676   34.3306 C.ar        1 MOL      -0.0479
     18 C20        38.5050   31.9185   33.2177 C.ar        1 MOL      -0.0536
     19 C18        39.6166   32.0605   32.3513 C.ar        1 MOL      -0.0326
     20 C21        39.4707   32.9005   31.1313 C.3         1 MOL      -0.0276
     21 C15        40.8147   31.3494   32.6445 C.ar        1 MOL      -0.0123
     22 C17        40.8740   30.5357   33.8055 C.ar        1 MOL      -0.0399
     23 C12        41.9132   31.3060   31.7540 C.ar        1 MOL      -0.0269
     24 C9         42.2979   30.0593   31.1949 C.ar        1 MOL      -0.0647
     25 C4         43.3967   29.9589   30.3263 C.ar        1 MOL      -0.0614
     26 C1         44.1355   31.1176   29.9947 C.ar        1 MOL       0.0282
     27 C3         43.7308   32.3430   30.5206 C.ar        1 MOL       0.1528
     28 O8         44.5330   33.3111   30.0325 O.3         1 MOL      -0.1790
     29 C7         42.6475   32.4679   31.4022 C.ar        1 MOL      -0.0179
     30 C2         45.2625   31.4057   29.1972 C.2         1 MOL       0.0534
     31 N6         45.4171   32.7468   29.2530 N.2         1 MOL      -0.1500
     32 C5         46.2196   30.5832   28.3865 C.3         1 MOL       0.0120
     33 C10        46.0221   29.0365   28.4010 C.3         1 MOL       0.0001
     34 C13        46.4026   28.4123   29.7672 C.3         1 MOL      -0.0317
     35 N16        47.7930   28.7628   30.1374 N.4         1 MOL       0.2272
     36 C14        48.0875   30.2129   30.1305 C.3         1 MOL      -0.0317
     37 C11        47.7095   30.8685   28.7760 C.3         1 MOL       0.0001
     38 H1         38.3223   28.4057   34.8999 H           1 MOL       0.2248
     39 H2         38.5808   25.9820   35.0748 H           1 MOL       0.0391
     40 H3         37.8422   24.5673   38.9688 H           1 MOL       0.0393
     41 H4         38.2902   26.7763   39.8560 H           1 MOL       0.0546
     42 H5         38.8130   28.6093   38.3689 H           1 MOL       0.0398
     43 H6         40.0702   23.4563   36.3230 H           1 MOL       0.0536
     44 H7         39.0868   22.8005   35.0028 H           1 MOL       0.0536
     45 H8         39.1284   21.8361   37.9199 H           1 MOL       0.0579
     46 H9         39.7408   20.9641   36.5120 H           1 MOL       0.0579
     47 H10        36.5655   22.0466   38.0970 H           1 MOL       0.0579
     48 H11        35.6462   21.4237   36.7205 H           1 MOL       0.0579
     49 H12        36.4288   23.1700   35.2548 H           1 MOL       0.0536
     50 H13        35.8963   23.9600   36.7383 H           1 MOL       0.0536
     51 H14        37.7333   30.9679   34.9175 H           1 MOL       0.0652
     52 H15        37.6271   32.4045   33.0234 H           1 MOL       0.0569
     53 H16        38.4734   33.3382   31.0368 H           1 MOL       0.0406
     54 H17        39.6535   32.2894   30.2454 H           1 MOL       0.0406
     55 H18        40.1933   33.7170   31.1569 H           1 MOL       0.0406
     56 H19        41.7313   30.0079   34.0078 H           1 MOL       0.0658
     57 H20        41.7683   29.2069   31.4232 H           1 MOL       0.0538
     58 H21        43.6299   29.0482   29.9465 H           1 MOL       0.0598
     59 H22        42.4024   33.3821   31.7894 H           1 MOL       0.0568
     60 H23        46.0893   30.9152   27.3516 H           1 MOL       0.0460
     61 H24        46.6662   28.5875   27.6371 H           1 MOL       0.0340
     62 H25        44.9980   28.7775   28.1234 H           1 MOL       0.0340
     63 H26        46.3260   27.3258   29.7088 H           1 MOL       0.0815
     64 H27        45.7405   28.7543   30.5627 H           1 MOL       0.0815
     65 H28        48.4183   28.3040   29.4707 H           1 MOL       0.2013
     66 H29        47.9793   28.3955   31.0683 H           1 MOL       0.2013
     67 H30        49.1572   30.3432   30.3179 H           1 MOL       0.0815
     68 H31        47.5461   30.7086   30.9471 H           1 MOL       0.0815
     69 H32        47.9168   31.9391   28.8173 H           1 MOL       0.0340
     70 H33        48.3657   30.4561   27.9994 H           1 MOL       0.0340
@<TRIPOS>BOND
     1     1     2   2
     2     2     3  am
     3     2    16   1
     4     3     4   1
     5     4     5  ar
     6     4     9  ar
     7     5     6  ar
     8     6     7  ar
     9     6    10   1
    10     7     8  ar
    11     8     9  ar
    12    10    11   1
    13    10    15   1
    14    11    12   1
    15    12    13   1
    16    13    14   1
    17    14    15   1
    18    16    17  ar
    19    16    22  ar
    20    17    18  ar
    21    18    19  ar
    22    19    20   1
    23    19    21  ar
    24    21    22  ar
    25    21    23   1
    26    23    24  ar
    27    23    29  ar
    28    24    25  ar
    29    25    26  ar
    30    26    27  ar
    31    26    30   1
    32    27    28   1
    33    27    29  ar
    34    28    31   1
    35    30    31   2
    36    30    32   1
    37    32    33   1
    38    32    37   1
    39    33    34   1
    40    34    35   1
    41    35    36   1
    42    36    37   1
    43     3    38   1
    44     5    39   1
    45     7    40   1
    46     8    41   1
    47     9    42   1
    48    11    43   1
    49    11    44   1
    50    12    45   1
    51    12    46   1
    52    14    47   1
    53    14    48   1
    54    15    49   1
    55    15    50   1
    56    17    51   1
    57    18    52   1
    58    20    53   1
    59    20    54   1
    60    20    55   1
    61    22    56   1
    62    24    57   1
    63    25    58   1
    64    29    59   1
    65    32    60   1
    66    33    61   1
    67    33    62   1
    68    34    63   1
    69    34    64   1
    70    35    65   1
    71    35    66   1
    72    36    67   1
    73    36    68   1
    74    37    69   1
    75    37    70   1
@<TRIPOS>SUBSTRUCTURE
     1  MOL      2

