@<TRIPOS>MOLECULE
3e93_ligand_014
    70    75
SMALL
GAST_HUCK
****
This file was generated by PARSER (from files_GN.cpp)

@<TRIPOS>ATOM
      1 O25        39.8954   30.3965   33.7369 O.2         1 MOL      -0.3760
      2 C22        40.3604   29.3035   34.0424 C.2         1 MOL       0.2274
      3 N24        41.5031   28.9200   33.4725 N.am        1 MOL      -0.2370
      4 C26        42.2882   29.5730   32.5598 C.ar        1 MOL       0.0536
      5 C27        42.5194   30.9704   32.5524 C.ar        1 MOL      -0.0255
      6 C29        43.2789   31.6317   31.5394 C.ar        1 MOL       0.0259
      7 C32        43.8330   30.7789   30.5414 C.ar        1 MOL      -0.0595
      8 C30        43.6858   29.3802   30.5758 C.ar        1 MOL      -0.0865
      9 C28        42.9248   28.7809   31.5874 C.ar        1 MOL      -0.0544
     10 N31        43.4525   33.0084   31.5093 N.pl3       1 MOL      -0.3075
     11 C33        42.6349   33.9503   32.2725 C.3         1 MOL       0.0499
     12 C35        43.5408   34.8676   33.1294 C.3         1 MOL       0.0673
     13 O37        44.4688   35.5711   32.2815 O.3         1 MOL      -0.3759
     14 C36        45.2876   34.6957   31.4848 C.3         1 MOL       0.0673
     15 C34        44.4400   33.6852   30.6659 C.3         1 MOL       0.0499
     16 C19        39.6149   28.4580   34.8909 C.ar        1 MOL       0.0497
     17 C23        38.4048   28.8997   35.4804 C.ar        1 MOL      -0.0479
     18 C20        37.6101   28.0462   36.2597 C.ar        1 MOL      -0.0536
     19 C18        37.9987   26.7100   36.5099 C.ar        1 MOL      -0.0326
     20 C21        37.0582   25.8270   37.2522 C.3         1 MOL      -0.0276
     21 C15        39.2516   26.2594   36.0056 C.ar        1 MOL      -0.0123
     22 C17        40.0132   27.1284   35.1862 C.ar        1 MOL      -0.0399
     23 C12        39.7955   24.9745   36.3111 C.ar        1 MOL      -0.0269
     24 C9         39.9956   24.5804   37.6611 C.ar        1 MOL      -0.0647
     25 C4         40.5343   23.3170   37.9887 C.ar        1 MOL      -0.0614
     26 C1         40.8878   22.4386   36.9461 C.ar        1 MOL       0.0282
     27 C3         40.7527   22.8422   35.6201 C.ar        1 MOL       0.1528
     28 O8         41.1722   21.8401   34.8204 O.3         1 MOL      -0.1790
     29 C7         40.2173   24.0948   35.2775 C.ar        1 MOL      -0.0179
     30 C2         41.3764   21.1313   36.8839 C.2         1 MOL       0.0534
     31 N6         41.5321   20.8340   35.5752 N.2         1 MOL      -0.1500
     32 C5         41.6746   20.1596   37.9703 C.3         1 MOL       0.0120
     33 C10        40.5338   20.0465   39.0299 C.3         1 MOL       0.0001
     34 C13        40.9325   19.0800   40.1743 C.3         1 MOL      -0.0317
     35 N16        42.2475   19.4374   40.7553 N.4         1 MOL       0.2272
     36 C14        43.3514   19.4530   39.7753 C.3         1 MOL      -0.0317
     37 C11        43.0505   20.4593   38.6373 C.3         1 MOL       0.0001
     38 H1         41.7889   28.0180   33.6641 H           1 MOL       0.2248
     39 H2         42.1586   31.4903   33.3468 H           1 MOL       0.0391
     40 H3         44.3267   31.1530   29.7310 H           1 MOL       0.0393
     41 H4         44.1101   28.8001   29.8479 H           1 MOL       0.0546
     42 H5         42.8084   27.7629   31.5872 H           1 MOL       0.0398
     43 H6         41.8775   33.5167   32.9211 H           1 MOL       0.0536
     44 H7         42.0808   34.5772   31.5693 H           1 MOL       0.0536
     45 H8         44.0796   34.2822   33.8806 H           1 MOL       0.0579
     46 H9         42.9255   35.6045   33.6507 H           1 MOL       0.0579
     47 H10        45.9873   34.1595   32.1324 H           1 MOL       0.0579
     48 H11        45.8729   35.3120   30.7980 H           1 MOL       0.0579
     49 H12        43.9148   34.2225   29.8713 H           1 MOL       0.0536
     50 H13        45.1646   33.0272   30.1884 H           1 MOL       0.0536
     51 H14        38.0688   29.8541   35.3267 H           1 MOL       0.0652
     52 H15        36.7358   28.4077   36.6431 H           1 MOL       0.0569
     53 H16        36.1040   26.3149   37.4740 H           1 MOL       0.0406
     54 H17        37.5009   25.5220   38.1997 H           1 MOL       0.0406
     55 H18        36.8384   24.9381   36.6565 H           1 MOL       0.0406
     56 H19        40.8856   26.7670   34.8005 H           1 MOL       0.0658
     57 H20        39.7621   25.2190   38.4274 H           1 MOL       0.0538
     58 H21        40.6731   23.0509   38.9665 H           1 MOL       0.0598
     59 H22        40.1170   24.3532   34.2919 H           1 MOL       0.0568
     60 H23        41.7636   19.1726   37.5006 H           1 MOL       0.0460
     61 H24        39.6225   19.6757   38.5480 H           1 MOL       0.0340
     62 H25        40.3108   21.0243   39.4648 H           1 MOL       0.0340
     63 H26        40.9675   18.0559   39.7961 H           1 MOL       0.0815
     64 H27        40.1802   19.1191   40.9634 H           1 MOL       0.0815
     65 H28        42.4716   18.7559   41.4760 H           1 MOL       0.2013
     66 H29        42.1875   20.3598   41.1945 H           1 MOL       0.2013
     67 H30        43.4953   18.4473   39.3653 H           1 MOL       0.0815
     68 H31        44.2692   19.7356   40.2916 H           1 MOL       0.0815
     69 H32        43.0531   21.4658   39.0560 H           1 MOL       0.0340
     70 H33        43.8479   20.3977   37.8918 H           1 MOL       0.0340
@<TRIPOS>BOND
     1     1     2   2
     2     2     3  am
     3     2    16   1
     4     3     4   1
     5     4     5  ar
     6     4     9  ar
     7     5     6  ar
     8     6     7  ar
     9     6    10   1
    10     7     8  ar
    11     8     9  ar
    12    10    11   1
    13    10    15   1
    14    11    12   1
    15    12    13   1
    16    13    14   1
    17    14    15   1
    18    16    17  ar
    19    16    22  ar
    20    17    18  ar
    21    18    19  ar
    22    19    20   1
    23    19    21  ar
    24    21    22  ar
    25    21    23   1
    26    23    24  ar
    27    23    29  ar
    28    24    25  ar
    29    25    26  ar
    30    26    27  ar
    31    26    30   1
    32    27    28   1
    33    27    29  ar
    34    28    31   1
    35    30    31   2
    36    30    32   1
    37    32    33   1
    38    32    37   1
    39    33    34   1
    40    34    35   1
    41    35    36   1
    42    36    37   1
    43     3    38   1
    44     5    39   1
    45     7    40   1
    46     8    41   1
    47     9    42   1
    48    11    43   1
    49    11    44   1
    50    12    45   1
    51    12    46   1
    52    14    47   1
    53    14    48   1
    54    15    49   1
    55    15    50   1
    56    17    51   1
    57    18    52   1
    58    20    53   1
    59    20    54   1
    60    20    55   1
    61    22    56   1
    62    24    57   1
    63    25    58   1
    64    29    59   1
    65    32    60   1
    66    33    61   1
    67    33    62   1
    68    34    63   1
    69    34    64   1
    70    35    65   1
    71    35    66   1
    72    36    67   1
    73    36    68   1
    74    37    69   1
    75    37    70   1
@<TRIPOS>SUBSTRUCTURE
     1  MOL      2

