@<TRIPOS>MOLECULE
3e93_ligand_011
    70    75
SMALL
GAST_HUCK
****
This file was generated by PARSER (from files_GN.cpp)

@<TRIPOS>ATOM
      1 O25        39.1494   22.8545   41.7713 O.2         1 MOL      -0.3760
      2 C22        38.4287   23.8221   42.0110 C.2         1 MOL       0.2274
      3 N24        37.1412   23.7036   42.3066 N.am        1 MOL      -0.2370
      4 C26        36.4334   22.5400   42.4056 C.ar        1 MOL       0.0536
      5 C27        36.9319   21.3727   43.0172 C.ar        1 MOL      -0.0255
      6 C29        36.2744   20.1112   42.9382 C.ar        1 MOL       0.0259
      7 C32        35.0112   20.1205   42.2737 C.ar        1 MOL      -0.0595
      8 C30        34.4481   21.2985   41.7525 C.ar        1 MOL      -0.0865
      9 C28        35.1557   22.5068   41.8190 C.ar        1 MOL      -0.0544
     10 N31        36.8501   18.9538   43.4389 N.pl3       1 MOL      -0.3075
     11 C33        37.8766   19.0096   44.4789 C.3         1 MOL       0.0499
     12 C35        38.2769   17.6570   45.0979 C.3         1 MOL       0.0673
     13 O37        38.5405   16.7413   44.0281 O.3         1 MOL      -0.3759
     14 C36        37.3383   16.4135   43.3131 C.3         1 MOL       0.0673
     15 C34        36.5582   17.6613   42.8147 C.3         1 MOL       0.0499
     16 C19        38.9806   25.0606   41.8063 C.ar        1 MOL       0.0497
     17 C23        39.7348   25.6645   42.8318 C.ar        1 MOL      -0.0479
     18 C20        40.4437   26.8483   42.5786 C.ar        1 MOL      -0.0536
     19 C18        40.4299   27.4492   41.2973 C.ar        1 MOL      -0.0326
     20 C21        41.3315   28.6136   41.0645 C.3         1 MOL      -0.0276
     21 C15        39.6174   26.8795   40.2619 C.ar        1 MOL      -0.0123
     22 C17        38.9071   25.6849   40.5421 C.ar        1 MOL      -0.0399
     23 C12        39.5775   27.4059   38.9311 C.ar        1 MOL      -0.0269
     24 C9         39.3836   28.7930   38.6797 C.ar        1 MOL      -0.0647
     25 C4         39.4876   29.3180   37.3712 C.ar        1 MOL      -0.0614
     26 C1         39.7500   28.4471   36.2940 C.ar        1 MOL       0.0282
     27 C3         39.8470   27.0781   36.5297 C.ar        1 MOL       0.1528
     28 O8         40.0788   26.4593   35.3521 O.3         1 MOL      -0.1790
     29 C7         39.7726   26.5374   37.8212 C.ar        1 MOL      -0.0179
     30 C2         39.9910   28.6114   34.9315 C.2         1 MOL       0.0534
     31 N6         40.1503   27.3739   34.4199 N.2         1 MOL      -0.1500
     32 C5         40.2116   29.8397   34.1249 C.3         1 MOL       0.0120
     33 C10        41.2067   30.8061   34.8375 C.3         1 MOL       0.0001
     34 C13        41.4347   32.0967   34.0106 C.3         1 MOL      -0.0317
     35 N16        40.1478   32.7343   33.6490 N.4         1 MOL       0.2272
     36 C14        39.2176   31.8512   32.9032 C.3         1 MOL      -0.0317
     37 C11        38.9004   30.5674   33.7141 C.3         1 MOL       0.0001
     38 H1         36.6320   24.5270   42.3258 H           1 MOL       0.2248
     39 H2         37.8360   21.4412   43.4824 H           1 MOL       0.0391
     40 H3         34.4537   19.2719   42.1844 H           1 MOL       0.0393
     41 H4         33.5308   21.2769   41.3001 H           1 MOL       0.0546
     42 H5         34.7583   23.3486   41.3904 H           1 MOL       0.0398
     43 H6         37.5375   19.6512   45.2978 H           1 MOL       0.0536
     44 H7         38.7846   19.4484   44.0513 H           1 MOL       0.0536
     45 H8         37.4901   17.2870   45.7654 H           1 MOL       0.0579
     46 H9         39.1874   17.7720   45.6910 H           1 MOL       0.0579
     47 H10        36.6992   15.7980   43.9545 H           1 MOL       0.0579
     48 H11        37.6255   15.7914   42.4586 H           1 MOL       0.0579
     49 H12        36.7613   17.7642   41.7413 H           1 MOL       0.0536
     50 H13        35.4940   17.4319   42.9312 H           1 MOL       0.0536
     51 H14        39.8097   25.2268   43.7537 H           1 MOL       0.0652
     52 H15        41.0086   27.2419   43.3348 H           1 MOL       0.0569
     53 H16        41.9792   28.8202   41.9321 H           1 MOL       0.0406
     54 H17        40.7308   29.5100   40.8407 H           1 MOL       0.0406
     55 H18        41.9909   28.3910   40.2143 H           1 MOL       0.0406
     56 H19        38.3530   25.2396   39.8024 H           1 MOL       0.0658
     57 H20        39.2075   29.4378   39.4657 H           1 MOL       0.0538
     58 H21        39.3780   30.3227   37.2207 H           1 MOL       0.0598
     59 H22        39.9244   25.5326   37.9543 H           1 MOL       0.0568
     60 H23        40.6942   29.5313   33.1901 H           1 MOL       0.0460
     61 H24        42.1688   30.3046   34.9891 H           1 MOL       0.0340
     62 H25        40.8203   31.0918   35.8196 H           1 MOL       0.0340
     63 H26        41.9978   31.8615   33.1059 H           1 MOL       0.0815
     64 H27        42.0185   32.8070   34.6003 H           1 MOL       0.0815
     65 H28        40.3427   33.5714   33.0920 H           1 MOL       0.2013
     66 H29        39.6857   33.0239   34.5135 H           1 MOL       0.2013
     67 H30        39.6601   31.5916   31.9359 H           1 MOL       0.0815
     68 H31        38.2956   32.3995   32.7100 H           1 MOL       0.0815
     69 H32        38.3236   30.8429   34.6008 H           1 MOL       0.0340
     70 H33        38.2839   29.9040   33.1019 H           1 MOL       0.0340
@<TRIPOS>BOND
     1     1     2   2
     2     2     3  am
     3     2    16   1
     4     3     4   1
     5     4     5  ar
     6     4     9  ar
     7     5     6  ar
     8     6     7  ar
     9     6    10   1
    10     7     8  ar
    11     8     9  ar
    12    10    11   1
    13    10    15   1
    14    11    12   1
    15    12    13   1
    16    13    14   1
    17    14    15   1
    18    16    17  ar
    19    16    22  ar
    20    17    18  ar
    21    18    19  ar
    22    19    20   1
    23    19    21  ar
    24    21    22  ar
    25    21    23   1
    26    23    24  ar
    27    23    29  ar
    28    24    25  ar
    29    25    26  ar
    30    26    27  ar
    31    26    30   1
    32    27    28   1
    33    27    29  ar
    34    28    31   1
    35    30    31   2
    36    30    32   1
    37    32    33   1
    38    32    37   1
    39    33    34   1
    40    34    35   1
    41    35    36   1
    42    36    37   1
    43     3    38   1
    44     5    39   1
    45     7    40   1
    46     8    41   1
    47     9    42   1
    48    11    43   1
    49    11    44   1
    50    12    45   1
    51    12    46   1
    52    14    47   1
    53    14    48   1
    54    15    49   1
    55    15    50   1
    56    17    51   1
    57    18    52   1
    58    20    53   1
    59    20    54   1
    60    20    55   1
    61    22    56   1
    62    24    57   1
    63    25    58   1
    64    29    59   1
    65    32    60   1
    66    33    61   1
    67    33    62   1
    68    34    63   1
    69    34    64   1
    70    35    65   1
    71    35    66   1
    72    36    67   1
    73    36    68   1
    74    37    69   1
    75    37    70   1
@<TRIPOS>SUBSTRUCTURE
     1  MOL      2

