@<TRIPOS>MOLECULE
3e93_ligand_020
    70    75
SMALL
GAST_HUCK
****
This file was generated by PARSER (from files_GN.cpp)

@<TRIPOS>ATOM
      1 O25        37.3916   23.4592   41.6011 O.2         1 MOL      -0.3760
      2 C22        38.5852   23.5914   41.8636 C.2         1 MOL       0.2274
      3 N24        39.3758   22.5433   42.0832 N.am        1 MOL      -0.2370
      4 C26        38.9840   21.2406   42.0619 C.ar        1 MOL       0.0536
      5 C27        37.9371   20.7634   42.8721 C.ar        1 MOL      -0.0255
      6 C29        37.4684   19.4301   42.7682 C.ar        1 MOL       0.0259
      7 C32        38.0936   18.5879   41.8072 C.ar        1 MOL      -0.0595
      8 C30        39.1807   19.0361   41.0456 C.ar        1 MOL      -0.0865
      9 C28        39.6434   20.3555   41.1860 C.ar        1 MOL      -0.0544
     10 N31        36.4422   18.9827   43.5515 N.pl3       1 MOL      -0.3075
     11 C33        36.5630   18.8388   44.9929 C.3         1 MOL       0.0499
     12 C35        35.4985   19.7151   45.6985 C.3         1 MOL       0.0673
     13 O37        34.1841   19.4537   45.1568 O.3         1 MOL      -0.3759
     14 C36        34.1031   19.6262   43.7249 C.3         1 MOL       0.0673
     15 C34        35.1274   18.7114   43.0029 C.3         1 MOL       0.0499
     16 C19        39.1532   24.8410   41.7151 C.ar        1 MOL       0.0497
     17 C23        39.9374   25.3960   42.7457 C.ar        1 MOL      -0.0479
     18 C20        40.5872   26.6221   42.5529 C.ar        1 MOL      -0.0536
     19 C18        40.5425   27.2955   41.3080 C.ar        1 MOL      -0.0326
     20 C21        41.4529   28.4631   41.1197 C.3         1 MOL      -0.0276
     21 C15        39.7397   26.7491   40.2549 C.ar        1 MOL      -0.0123
     22 C17        39.0238   25.5518   40.4993 C.ar        1 MOL      -0.0399
     23 C12        39.7018   27.2753   38.9223 C.ar        1 MOL      -0.0269
     24 C9         39.5146   28.6585   38.6633 C.ar        1 MOL      -0.0647
     25 C4         39.6185   29.1824   37.3507 C.ar        1 MOL      -0.0614
     26 C1         39.8386   28.2986   36.2726 C.ar        1 MOL       0.0282
     27 C3         39.9089   26.9294   36.5111 C.ar        1 MOL       0.1528
     28 O8         40.0709   26.2974   35.3259 O.3         1 MOL      -0.1790
     29 C7         39.8473   26.4034   37.8089 C.ar        1 MOL      -0.0179
     30 C2         40.0225   28.4463   34.8993 C.2         1 MOL       0.0534
     31 N6         40.1230   27.2041   34.3834 N.2         1 MOL      -0.1500
     32 C5         40.1831   29.6754   34.0807 C.3         1 MOL       0.0120
     33 C10        41.2761   30.6128   34.6735 C.3         1 MOL       0.0001
     34 C13        41.4249   31.9015   33.8253 C.3         1 MOL      -0.0317
     35 N16        40.1161   32.5755   33.6500 N.4         1 MOL       0.2272
     36 C14        39.0741   31.7236   33.0358 C.3         1 MOL      -0.0317
     37 C11        38.8408   30.4308   33.8570 C.3         1 MOL       0.0001
     38 H1         40.3368   22.7052   42.1134 H           1 MOL       0.2248
     39 H2         37.4749   21.4147   43.5111 H           1 MOL       0.0391
     40 H3         37.7850   17.6167   41.6977 H           1 MOL       0.0393
     41 H4         39.6320   18.4039   40.3799 H           1 MOL       0.0546
     42 H5         40.4210   20.6782   40.6121 H           1 MOL       0.0398
     43 H6         37.5556   19.0894   45.3761 H           1 MOL       0.0536
     44 H7         36.3874   17.7900   45.2503 H           1 MOL       0.0536
     45 H8         35.7481   20.7778   45.5912 H           1 MOL       0.0579
     46 H9         35.4872   19.4798   46.7651 H           1 MOL       0.0579
     47 H10        34.2826   20.6750   43.4654 H           1 MOL       0.0579
     48 H11        33.0957   19.3662   43.4034 H           1 MOL       0.0579
     49 H12        34.8699   17.6625   43.1680 H           1 MOL       0.0536
     50 H13        35.0568   18.9061   41.9287 H           1 MOL       0.0536
     51 H14        40.0330   24.9129   43.6473 H           1 MOL       0.0652
     52 H15        41.1541   26.9942   43.3211 H           1 MOL       0.0569
     53 H16        41.7905   28.8880   42.0766 H           1 MOL       0.0406
     54 H17        40.9656   29.2700   40.5563 H           1 MOL       0.0406
     55 H18        42.3343   28.1223   40.5629 H           1 MOL       0.0406
     56 H19        38.4333   25.1530   39.7619 H           1 MOL       0.0658
     57 H20        39.3553   29.3017   39.4460 H           1 MOL       0.0538
     58 H21        39.5314   30.1862   37.1987 H           1 MOL       0.0598
     59 H22        39.9559   25.3934   37.9345 H           1 MOL       0.0568
     60 H23        40.5335   29.3578   33.0938 H           1 MOL       0.0460
     61 H24        42.2384   30.0895   34.7058 H           1 MOL       0.0340
     62 H25        41.0184   30.9035   35.6949 H           1 MOL       0.0340
     63 H26        41.8508   31.6655   32.8444 H           1 MOL       0.0815
     64 H27        42.1050   32.5910   34.3290 H           1 MOL       0.0815
     65 H28        40.2587   33.4061   33.0704 H           1 MOL       0.2013
     66 H29        39.7890   32.8786   34.5693 H           1 MOL       0.2013
     67 H30        39.3635   31.4671   32.0119 H           1 MOL       0.0815
     68 H31        38.1390   32.2876   32.9877 H           1 MOL       0.0815
     69 H32        38.3936   30.7086   34.8112 H           1 MOL       0.0340
     70 H33        38.1349   29.7865   33.3271 H           1 MOL       0.0340
@<TRIPOS>BOND
     1     1     2   2
     2     2     3  am
     3     2    16   1
     4     3     4   1
     5     4     5  ar
     6     4     9  ar
     7     5     6  ar
     8     6     7  ar
     9     6    10   1
    10     7     8  ar
    11     8     9  ar
    12    10    11   1
    13    10    15   1
    14    11    12   1
    15    12    13   1
    16    13    14   1
    17    14    15   1
    18    16    17  ar
    19    16    22  ar
    20    17    18  ar
    21    18    19  ar
    22    19    20   1
    23    19    21  ar
    24    21    22  ar
    25    21    23   1
    26    23    24  ar
    27    23    29  ar
    28    24    25  ar
    29    25    26  ar
    30    26    27  ar
    31    26    30   1
    32    27    28   1
    33    27    29  ar
    34    28    31   1
    35    30    31   2
    36    30    32   1
    37    32    33   1
    38    32    37   1
    39    33    34   1
    40    34    35   1
    41    35    36   1
    42    36    37   1
    43     3    38   1
    44     5    39   1
    45     7    40   1
    46     8    41   1
    47     9    42   1
    48    11    43   1
    49    11    44   1
    50    12    45   1
    51    12    46   1
    52    14    47   1
    53    14    48   1
    54    15    49   1
    55    15    50   1
    56    17    51   1
    57    18    52   1
    58    20    53   1
    59    20    54   1
    60    20    55   1
    61    22    56   1
    62    24    57   1
    63    25    58   1
    64    29    59   1
    65    32    60   1
    66    33    61   1
    67    33    62   1
    68    34    63   1
    69    34    64   1
    70    35    65   1
    71    35    66   1
    72    36    67   1
    73    36    68   1
    74    37    69   1
    75    37    70   1
@<TRIPOS>SUBSTRUCTURE
     1  MOL      2

