@<TRIPOS>MOLECULE
3e93_ligand_048
    70    75
SMALL
GAST_HUCK
****
This file was generated by PARSER (from files_GN.cpp)

@<TRIPOS>ATOM
      1 O25        40.4821   27.5532   37.0695 O.2         1 MOL      -0.3760
      2 C22        39.6317   27.3811   36.2036 C.2         1 MOL       0.2274
      3 N24        39.2074   28.3689   35.4172 N.am        1 MOL      -0.2370
      4 C26        39.6326   29.6717   35.3085 C.ar        1 MOL       0.0536
      5 C27        39.3233   30.3541   34.1068 C.ar        1 MOL      -0.0255
      6 C29        39.8425   31.6425   33.8136 C.ar        1 MOL       0.0259
      7 C32        40.6708   32.2536   34.7826 C.ar        1 MOL      -0.0595
      8 C30        40.9114   31.6369   36.0180 C.ar        1 MOL      -0.0865
      9 C28        40.3806   30.3664   36.2886 C.ar        1 MOL      -0.0544
     10 N31        39.5607   32.2833   32.6356 N.pl3       1 MOL      -0.3075
     11 C33        40.5894   32.9694   31.8767 C.3         1 MOL       0.0499
     12 C35        40.6049   32.4078   30.4324 C.3         1 MOL       0.0673
     13 O37        39.2899   32.4893   29.8482 O.3         1 MOL      -0.3759
     14 C36        38.2749   31.7938   30.6045 C.3         1 MOL       0.0673
     15 C34        38.2317   32.3068   32.0610 C.3         1 MOL       0.0499
     16 C19        39.1206   26.0945   36.0597 C.ar        1 MOL       0.0497
     17 C23        39.0190   25.4795   34.7918 C.ar        1 MOL      -0.0479
     18 C20        38.4865   24.1844   34.6559 C.ar        1 MOL      -0.0536
     19 C18        38.0396   23.4612   35.7848 C.ar        1 MOL      -0.0326
     20 C21        37.4450   22.1074   35.6113 C.3         1 MOL      -0.0276
     21 C15        38.1705   24.0627   37.0671 C.ar        1 MOL      -0.0123
     22 C17        38.7092   25.3612   37.1911 C.ar        1 MOL      -0.0399
     23 C12        37.7502   23.4189   38.2481 C.ar        1 MOL      -0.0269
     24 C9         36.4636   23.6930   38.7760 C.ar        1 MOL      -0.0647
     25 C4         36.0348   23.0765   39.9681 C.ar        1 MOL      -0.0614
     26 C1         36.9124   22.1908   40.6194 C.ar        1 MOL       0.0282
     27 C3         38.1708   21.9162   40.0985 C.ar        1 MOL       0.1528
     28 O8         38.7780   21.0186   40.9040 O.3         1 MOL      -0.1790
     29 C7         38.6168   22.5243   38.9170 C.ar        1 MOL      -0.0179
     30 C2         36.8129   21.4219   41.7722 C.2         1 MOL       0.0534
     31 N6         37.9649   20.7282   41.8894 N.2         1 MOL      -0.1500
     32 C5         35.6567   21.3203   42.6921 C.3         1 MOL       0.0120
     33 C10        36.0883   21.5219   44.1728 C.3         1 MOL       0.0001
     34 C13        34.8900   21.3287   45.1348 C.3         1 MOL      -0.0317
     35 N16        34.2038   20.0379   44.8885 N.4         1 MOL       0.2272
     36 C14        33.7425   19.8363   43.4943 C.3         1 MOL      -0.0317
     37 C11        34.9216   19.9648   42.5003 C.3         1 MOL       0.0001
     38 H1         38.5293   28.1105   34.7725 H           1 MOL       0.2248
     39 H2         38.7775   29.8669   33.3908 H           1 MOL       0.0391
     40 H3         41.0452   33.1923   34.6239 H           1 MOL       0.0393
     41 H4         41.4624   32.1189   36.7295 H           1 MOL       0.0546
     42 H5         40.5452   29.9656   37.2093 H           1 MOL       0.0398
     43 H6         41.5922   32.8361   32.2961 H           1 MOL       0.0536
     44 H7         40.3708   34.0386   31.8451 H           1 MOL       0.0536
     45 H8         40.9502   31.3706   30.4371 H           1 MOL       0.0579
     46 H9         41.2938   32.9929   29.8194 H           1 MOL       0.0579
     47 H10        38.4577   30.7174   30.5996 H           1 MOL       0.0579
     48 H11        37.3124   31.9776   30.1238 H           1 MOL       0.0579
     49 H12        37.8773   33.3397   32.0467 H           1 MOL       0.0536
     50 H13        37.4985   31.7323   32.6333 H           1 MOL       0.0536
     51 H14        39.3508   25.9615   33.9529 H           1 MOL       0.0652
     52 H15        38.4305   23.7744   33.7211 H           1 MOL       0.0569
     53 H16        37.3622   21.8117   34.5621 H           1 MOL       0.0406
     54 H17        36.4386   22.0873   36.0368 H           1 MOL       0.0406
     55 H18        38.0603   21.3654   36.1248 H           1 MOL       0.0406
     56 H19        38.7797   25.7880   38.1209 H           1 MOL       0.0658
     57 H20        35.8304   24.3417   38.2983 H           1 MOL       0.0538
     58 H21        35.1067   23.2768   40.3480 H           1 MOL       0.0598
     59 H22        39.5483   22.3087   38.5551 H           1 MOL       0.0568
     60 H23        34.9478   22.1164   42.4514 H           1 MOL       0.0460
     61 H24        36.4988   22.5277   44.3061 H           1 MOL       0.0340
     62 H25        36.8658   20.7984   44.4380 H           1 MOL       0.0340
     63 H26        34.1837   22.1536   45.0194 H           1 MOL       0.0815
     64 H27        35.2514   21.3370   46.1661 H           1 MOL       0.0815
     65 H28        33.3949   19.9742   45.5114 H           1 MOL       0.2013
     66 H29        34.8520   19.2806   45.1218 H           1 MOL       0.2013
     67 H30        32.9684   20.5667   43.2512 H           1 MOL       0.0815
     68 H31        33.3053   18.8396   43.4127 H           1 MOL       0.0815
     69 H32        35.6152   19.1337   42.6643 H           1 MOL       0.0340
     70 H33        34.5379   19.8902   41.4780 H           1 MOL       0.0340
@<TRIPOS>BOND
     1     1     2   2
     2     2     3  am
     3     2    16   1
     4     3     4   1
     5     4     5  ar
     6     4     9  ar
     7     5     6  ar
     8     6     7  ar
     9     6    10   1
    10     7     8  ar
    11     8     9  ar
    12    10    11   1
    13    10    15   1
    14    11    12   1
    15    12    13   1
    16    13    14   1
    17    14    15   1
    18    16    17  ar
    19    16    22  ar
    20    17    18  ar
    21    18    19  ar
    22    19    20   1
    23    19    21  ar
    24    21    22  ar
    25    21    23   1
    26    23    24  ar
    27    23    29  ar
    28    24    25  ar
    29    25    26  ar
    30    26    27  ar
    31    26    30   1
    32    27    28   1
    33    27    29  ar
    34    28    31   1
    35    30    31   2
    36    30    32   1
    37    32    33   1
    38    32    37   1
    39    33    34   1
    40    34    35   1
    41    35    36   1
    42    36    37   1
    43     3    38   1
    44     5    39   1
    45     7    40   1
    46     8    41   1
    47     9    42   1
    48    11    43   1
    49    11    44   1
    50    12    45   1
    51    12    46   1
    52    14    47   1
    53    14    48   1
    54    15    49   1
    55    15    50   1
    56    17    51   1
    57    18    52   1
    58    20    53   1
    59    20    54   1
    60    20    55   1
    61    22    56   1
    62    24    57   1
    63    25    58   1
    64    29    59   1
    65    32    60   1
    66    33    61   1
    67    33    62   1
    68    34    63   1
    69    34    64   1
    70    35    65   1
    71    35    66   1
    72    36    67   1
    73    36    68   1
    74    37    69   1
    75    37    70   1
@<TRIPOS>SUBSTRUCTURE
     1  MOL      2

