@<TRIPOS>MOLECULE
3e93_ligand_041
    70    75
SMALL
GAST_HUCK
****
This file was generated by PARSER (from files_GN.cpp)

@<TRIPOS>ATOM
      1 O25        41.9196   20.5257   35.3413 O.2         1 MOL      -0.3760
      2 C22        42.4337   21.6183   35.5692 C.2         1 MOL       0.2274
      3 N24        43.7331   21.7642   35.8068 N.am        1 MOL      -0.2370
      4 C26        44.6946   20.7895   35.8723 C.ar        1 MOL       0.0536
      5 C27        44.4491   19.4912   36.3753 C.ar        1 MOL      -0.0255
      6 C29        45.4067   18.4548   36.2436 C.ar        1 MOL       0.0259
      7 C32        46.6625   18.7791   35.6740 C.ar        1 MOL      -0.0595
      8 C30        46.9663   20.0992   35.3035 C.ar        1 MOL      -0.0865
      9 C28        45.9813   21.0986   35.3974 C.ar        1 MOL      -0.0544
     10 N31        45.0920   17.1785   36.6102 N.pl3       1 MOL      -0.3075
     11 C33        44.6184   16.8637   37.9418 C.3         1 MOL       0.0499
     12 C35        45.5008   15.7218   38.5085 C.3         1 MOL       0.0673
     13 O37        45.4983   14.5896   37.6139 O.3         1 MOL      -0.3759
     14 C36        45.9674   14.9016   36.2840 C.3         1 MOL       0.0673
     15 C34        45.1671   16.0782   35.6740 C.3         1 MOL       0.0499
     16 C19        41.6053   22.7303   35.6000 C.ar        1 MOL       0.0497
     17 C23        41.8871   23.8816   34.8357 C.ar        1 MOL      -0.0479
     18 C20        41.0531   25.0100   34.9032 C.ar        1 MOL      -0.0536
     19 C18        39.9381   25.0462   35.7746 C.ar        1 MOL      -0.0326
     20 C21        39.1325   26.2963   35.8681 C.3         1 MOL      -0.0276
     21 C15        39.6394   23.8869   36.5497 C.ar        1 MOL      -0.0123
     22 C17        40.4612   22.7351   36.4219 C.ar        1 MOL      -0.0399
     23 C12        38.5762   23.8306   37.4966 C.ar        1 MOL      -0.0269
     24 C9         38.8084   23.3282   38.8059 C.ar        1 MOL      -0.0647
     25 C4         37.7579   23.2069   39.7409 C.ar        1 MOL      -0.0614
     26 C1         36.4626   23.6018   39.3581 C.ar        1 MOL       0.0282
     27 C3         36.2461   24.1289   38.0870 C.ar        1 MOL       0.1528
     28 O8         34.9492   24.4658   37.9764 O.3         1 MOL      -0.1790
     29 C7         37.2721   24.2494   37.1403 C.ar        1 MOL      -0.0179
     30 C2         35.2178   23.6226   39.9816 C.2         1 MOL       0.0534
     31 N6         34.3541   24.1660   39.1002 N.2         1 MOL      -0.1500
     32 C5         34.8521   23.1461   41.3424 C.3         1 MOL       0.0120
     33 C10        35.0790   21.6083   41.4728 C.3         1 MOL       0.0001
     34 C13        34.5944   21.0619   42.8352 C.3         1 MOL      -0.0317
     35 N16        33.1785   21.4181   43.0571 N.4         1 MOL       0.2272
     36 C14        32.9224   22.8763   43.0466 C.3         1 MOL      -0.0317
     37 C11        33.3752   23.5059   41.7103 C.3         1 MOL       0.0001
     38 H1         44.0545   22.6794   35.8936 H           1 MOL       0.2248
     39 H2         43.5380   19.2723   36.7834 H           1 MOL       0.0391
     40 H3         47.3872   18.0646   35.5877 H           1 MOL       0.0393
     41 H4         47.8921   20.3314   34.9458 H           1 MOL       0.0546
     42 H5         46.2011   22.0497   35.0819 H           1 MOL       0.0398
     43 H6         43.5760   16.5357   37.8976 H           1 MOL       0.0536
     44 H7         44.6786   17.7147   38.6270 H           1 MOL       0.0536
     45 H8         45.1092   15.3995   39.4728 H           1 MOL       0.0579
     46 H9         46.5239   16.0772   38.6637 H           1 MOL       0.0579
     47 H10        45.8364   14.0161   35.6585 H           1 MOL       0.0579
     48 H11        47.0323   15.1460   36.3099 H           1 MOL       0.0579
     49 H12        45.6044   16.3546   34.7103 H           1 MOL       0.0536
     50 H13        44.1464   15.7383   35.4725 H           1 MOL       0.0536
     51 H14        42.6914   23.9016   34.2104 H           1 MOL       0.0652
     52 H15        41.2738   25.8086   34.3071 H           1 MOL       0.0569
     53 H16        39.5933   27.1273   35.3219 H           1 MOL       0.0406
     54 H17        39.0295   26.5895   36.9163 H           1 MOL       0.0406
     55 H18        38.1344   26.1043   35.4467 H           1 MOL       0.0406
     56 H19        40.2351   21.8936   36.9660 H           1 MOL       0.0658
     57 H20        39.7500   23.0493   39.0907 H           1 MOL       0.0538
     58 H21        37.9406   22.8513   40.6789 H           1 MOL       0.0598
     59 H22        37.0660   24.6402   36.2118 H           1 MOL       0.0568
     60 H23        35.5100   23.6585   42.0503 H           1 MOL       0.0460
     61 H24        36.1398   21.3700   41.3591 H           1 MOL       0.0340
     62 H25        34.5287   21.0900   40.6848 H           1 MOL       0.0340
     63 H26        35.2101   21.4556   43.6485 H           1 MOL       0.0815
     64 H27        34.6816   19.9727   42.8409 H           1 MOL       0.0815
     65 H28        32.8849   21.0446   43.9563 H           1 MOL       0.2013
     66 H29        32.6114   20.9790   42.3260 H           1 MOL       0.2013
     67 H30        33.4363   23.3503   43.8867 H           1 MOL       0.0815
     68 H31        31.8487   23.0403   43.1721 H           1 MOL       0.0815
     69 H32        32.7005   23.1435   40.9293 H           1 MOL       0.0340
     70 H33        33.2642   24.5931   41.7741 H           1 MOL       0.0340
@<TRIPOS>BOND
     1     1     2   2
     2     2     3  am
     3     2    16   1
     4     3     4   1
     5     4     5  ar
     6     4     9  ar
     7     5     6  ar
     8     6     7  ar
     9     6    10   1
    10     7     8  ar
    11     8     9  ar
    12    10    11   1
    13    10    15   1
    14    11    12   1
    15    12    13   1
    16    13    14   1
    17    14    15   1
    18    16    17  ar
    19    16    22  ar
    20    17    18  ar
    21    18    19  ar
    22    19    20   1
    23    19    21  ar
    24    21    22  ar
    25    21    23   1
    26    23    24  ar
    27    23    29  ar
    28    24    25  ar
    29    25    26  ar
    30    26    27  ar
    31    26    30   1
    32    27    28   1
    33    27    29  ar
    34    28    31   1
    35    30    31   2
    36    30    32   1
    37    32    33   1
    38    32    37   1
    39    33    34   1
    40    34    35   1
    41    35    36   1
    42    36    37   1
    43     3    38   1
    44     5    39   1
    45     7    40   1
    46     8    41   1
    47     9    42   1
    48    11    43   1
    49    11    44   1
    50    12    45   1
    51    12    46   1
    52    14    47   1
    53    14    48   1
    54    15    49   1
    55    15    50   1
    56    17    51   1
    57    18    52   1
    58    20    53   1
    59    20    54   1
    60    20    55   1
    61    22    56   1
    62    24    57   1
    63    25    58   1
    64    29    59   1
    65    32    60   1
    66    33    61   1
    67    33    62   1
    68    34    63   1
    69    34    64   1
    70    35    65   1
    71    35    66   1
    72    36    67   1
    73    36    68   1
    74    37    69   1
    75    37    70   1
@<TRIPOS>SUBSTRUCTURE
     1  MOL      2

