@<TRIPOS>MOLECULE
3e93_ligand_045
    70    75
SMALL
GAST_HUCK
****
This file was generated by PARSER (from files_GN.cpp)

@<TRIPOS>ATOM
      1 O25        41.6885   19.2057   35.8357 O.2         1 MOL      -0.3760
      2 C22        42.3518   19.2758   36.8763 C.2         1 MOL       0.2274
      3 N24        43.6660   19.0377   36.9197 N.am        1 MOL      -0.2370
      4 C26        44.5502   18.8658   35.8952 C.ar        1 MOL       0.0536
      5 C27        44.2707   18.2251   34.6679 C.ar        1 MOL      -0.0255
      6 C29        45.2265   18.1876   33.6177 C.ar        1 MOL       0.0259
      7 C32        46.4904   18.7832   33.8316 C.ar        1 MOL      -0.0595
      8 C30        46.8177   19.3425   35.0730 C.ar        1 MOL      -0.0865
      9 C28        45.8530   19.3807   36.1002 C.ar        1 MOL      -0.0544
     10 N31        44.9496   17.5952   32.4289 N.pl3       1 MOL      -0.3075
     11 C33        44.7605   16.1658   32.3145 C.3         1 MOL       0.0499
     12 C35        43.3495   15.8766   31.7522 C.3         1 MOL       0.0673
     13 O37        43.1031   16.6492   30.5598 O.3         1 MOL      -0.3759
     14 C36        43.2782   18.0714   30.7289 C.3         1 MOL       0.0673
     15 C34        44.7067   18.3883   31.2392 C.3         1 MOL       0.0499
     16 C19        41.6954   19.6519   38.0299 C.ar        1 MOL       0.0497
     17 C23        41.4703   18.7250   39.0696 C.ar        1 MOL      -0.0479
     18 C20        40.8105   19.1091   40.2446 C.ar        1 MOL      -0.0536
     19 C18        40.3794   20.4404   40.4426 C.ar        1 MOL      -0.0326
     20 C21        39.6582   20.7938   41.6951 C.3         1 MOL      -0.0276
     21 C15        40.6183   21.3974   39.4115 C.ar        1 MOL      -0.0123
     22 C17        41.2472   20.9871   38.2077 C.ar        1 MOL      -0.0399
     23 C12        40.2748   22.7634   39.5497 C.ar        1 MOL      -0.0269
     24 C9         40.9897   23.5808   40.4631 C.ar        1 MOL      -0.0647
     25 C4         40.6581   24.9424   40.6420 C.ar        1 MOL      -0.0614
     26 C1         39.6179   25.4901   39.8587 C.ar        1 MOL       0.0282
     27 C3         38.9231   24.6949   38.9534 C.ar        1 MOL       0.1528
     28 O8         37.9901   25.4561   38.3434 O.3         1 MOL      -0.1790
     29 C7         39.2270   23.3355   38.7823 C.ar        1 MOL      -0.0179
     30 C2         39.0582   26.7579   39.7465 C.2         1 MOL       0.0534
     31 N6         38.0732   26.6709   38.8170 N.2         1 MOL      -0.1500
     32 C5         39.4070   28.0181   40.4498 C.3         1 MOL       0.0120
     33 C10        40.9365   28.3278   40.3933 C.3         1 MOL       0.0001
     34 C13        41.2756   29.6208   41.1828 C.3         1 MOL      -0.0317
     35 N16        40.7136   29.6102   42.5546 N.4         1 MOL       0.2272
     36 C14        39.2519   29.3699   42.6111 C.3         1 MOL      -0.0317
     37 C11        38.8888   28.0312   41.9224 C.3         1 MOL       0.0001
     38 H1         44.0641   19.1751   37.7998 H           1 MOL       0.2248
     39 H2         43.3524   17.8084   34.5061 H           1 MOL       0.0391
     40 H3         47.2022   18.7500   33.0905 H           1 MOL       0.0393
     41 H4         47.7476   19.7296   35.2326 H           1 MOL       0.0546
     42 H5         46.1046   19.8104   36.9852 H           1 MOL       0.0398
     43 H6         44.8985   15.6456   33.2686 H           1 MOL       0.0536
     44 H7         45.5114   15.7684   31.6261 H           1 MOL       0.0536
     45 H8         42.5945   16.0992   32.5119 H           1 MOL       0.0579
     46 H9         43.2753   14.8147   31.5013 H           1 MOL       0.0579
     47 H10        42.5370   18.4619   31.4321 H           1 MOL       0.0579
     48 H11        43.1217   18.5613   29.7665 H           1 MOL       0.0579
     49 H12        45.4342   18.1370   30.4651 H           1 MOL       0.0536
     50 H13        44.7691   19.4673   31.4282 H           1 MOL       0.0536
     51 H14        41.7719   17.7527   38.9570 H           1 MOL       0.0652
     52 H15        40.6443   18.4044   40.9604 H           1 MOL       0.0569
     53 H16        39.5633   19.9511   42.3830 H           1 MOL       0.0406
     54 H17        38.6541   21.1455   41.4532 H           1 MOL       0.0406
     55 H18        40.1850   21.5830   42.2281 H           1 MOL       0.0406
     56 H19        41.4141   21.6752   37.4630 H           1 MOL       0.0658
     57 H20        41.7657   23.1987   41.0098 H           1 MOL       0.0538
     58 H21        41.1767   25.5129   41.3168 H           1 MOL       0.0598
     59 H22        38.6995   22.7766   38.1118 H           1 MOL       0.0568
     60 H23        38.8905   28.8292   39.9226 H           1 MOL       0.0460
     61 H24        41.2417   28.4612   39.3492 H           1 MOL       0.0340
     62 H25        41.5093   27.4958   40.8283 H           1 MOL       0.0340
     63 H26        40.9180   30.5064   40.6446 H           1 MOL       0.0815
     64 H27        42.3597   29.6905   41.2786 H           1 MOL       0.0815
     65 H28        40.9144   30.5139   42.9914 H           1 MOL       0.2013
     66 H29        41.1905   28.8802   43.0951 H           1 MOL       0.2013
     67 H30        38.7148   30.1923   42.1275 H           1 MOL       0.0815
     68 H31        38.9490   29.3313   43.6587 H           1 MOL       0.0815
     69 H32        39.3431   27.2212   42.5008 H           1 MOL       0.0340
     70 H33        37.8006   27.8963   41.9397 H           1 MOL       0.0340
@<TRIPOS>BOND
     1     1     2   2
     2     2     3  am
     3     2    16   1
     4     3     4   1
     5     4     5  ar
     6     4     9  ar
     7     5     6  ar
     8     6     7  ar
     9     6    10   1
    10     7     8  ar
    11     8     9  ar
    12    10    11   1
    13    10    15   1
    14    11    12   1
    15    12    13   1
    16    13    14   1
    17    14    15   1
    18    16    17  ar
    19    16    22  ar
    20    17    18  ar
    21    18    19  ar
    22    19    20   1
    23    19    21  ar
    24    21    22  ar
    25    21    23   1
    26    23    24  ar
    27    23    29  ar
    28    24    25  ar
    29    25    26  ar
    30    26    27  ar
    31    26    30   1
    32    27    28   1
    33    27    29  ar
    34    28    31   1
    35    30    31   2
    36    30    32   1
    37    32    33   1
    38    32    37   1
    39    33    34   1
    40    34    35   1
    41    35    36   1
    42    36    37   1
    43     3    38   1
    44     5    39   1
    45     7    40   1
    46     8    41   1
    47     9    42   1
    48    11    43   1
    49    11    44   1
    50    12    45   1
    51    12    46   1
    52    14    47   1
    53    14    48   1
    54    15    49   1
    55    15    50   1
    56    17    51   1
    57    18    52   1
    58    20    53   1
    59    20    54   1
    60    20    55   1
    61    22    56   1
    62    24    57   1
    63    25    58   1
    64    29    59   1
    65    32    60   1
    66    33    61   1
    67    33    62   1
    68    34    63   1
    69    34    64   1
    70    35    65   1
    71    35    66   1
    72    36    67   1
    73    36    68   1
    74    37    69   1
    75    37    70   1
@<TRIPOS>SUBSTRUCTURE
     1  MOL      2

