@<TRIPOS>MOLECULE
3e93_ligand_049
    70    75
SMALL
GAST_HUCK
****
This file was generated by PARSER (from files_GN.cpp)

@<TRIPOS>ATOM
      1 O25        43.1741   15.7000   37.0531 O.2         1 MOL      -0.3760
      2 C22        42.4591   16.6405   37.3860 C.2         1 MOL       0.2274
      3 N24        42.9580   17.8706   37.5218 N.am        1 MOL      -0.2370
      4 C26        44.2401   18.2772   37.2557 C.ar        1 MOL       0.0536
      5 C27        44.4415   19.5102   36.5867 C.ar        1 MOL      -0.0255
      6 C29        45.7083   19.8698   36.0565 C.ar        1 MOL       0.0259
      7 C32        46.8050   19.0050   36.2960 C.ar        1 MOL      -0.0595
      8 C30        46.6466   17.8504   37.0784 C.ar        1 MOL      -0.0865
      9 C28        45.3770   17.4911   37.5569 C.ar        1 MOL      -0.0544
     10 N31        45.8664   20.9860   35.2856 N.pl3       1 MOL      -0.3075
     11 C33        45.5383   22.3042   35.7781 C.3         1 MOL       0.0499
     12 C35        46.7641   23.2336   35.5585 C.3         1 MOL       0.0673
     13 O37        47.2251   23.1869   34.1904 O.3         1 MOL      -0.3759
     14 C36        47.5623   21.8574   33.7378 C.3         1 MOL       0.0673
     15 C34        46.3619   20.9020   33.9268 C.3         1 MOL       0.0499
     16 C19        41.0803   16.4449   37.4041 C.ar        1 MOL       0.0497
     17 C23        40.4649   15.5647   36.4875 C.ar        1 MOL      -0.0479
     18 C20        39.0689   15.4920   36.3917 C.ar        1 MOL      -0.0536
     19 C18        38.2370   16.3078   37.1970 C.ar        1 MOL      -0.0326
     20 C21        36.7892   16.3409   36.8606 C.3         1 MOL      -0.0276
     21 C15        38.8282   17.1201   38.2195 C.ar        1 MOL      -0.0123
     22 C17        40.2488   17.1570   38.2998 C.ar        1 MOL      -0.0399
     23 C12        38.0680   17.9324   39.1238 C.ar        1 MOL      -0.0269
     24 C9         36.8284   17.4903   39.6756 C.ar        1 MOL      -0.0647
     25 C4         36.0438   18.3325   40.4935 C.ar        1 MOL      -0.0614
     26 C1         36.5625   19.5759   40.8916 C.ar        1 MOL       0.0282
     27 C3         37.7995   19.9854   40.4143 C.ar        1 MOL       0.1528
     28 O8         38.0716   21.2010   40.9303 O.3         1 MOL      -0.1790
     29 C7         38.5462   19.2134   39.5128 C.ar        1 MOL      -0.0179
     30 C2         36.1114   20.5997   41.7252 C.2         1 MOL       0.0534
     31 N6         37.0685   21.5554   41.6888 N.2         1 MOL      -0.1500
     32 C5         34.7821   20.7366   42.4009 C.3         1 MOL       0.0120
     33 C10        34.5095   22.1838   42.9385 C.3         1 MOL       0.0001
     34 C13        35.1891   22.4485   44.3095 C.3         1 MOL      -0.0317
     35 N16        34.7625   21.4265   45.2916 N.4         1 MOL       0.2272
     36 C14        35.1297   20.0482   44.8949 C.3         1 MOL      -0.0317
     37 C11        34.4881   19.6893   43.5310 C.3         1 MOL       0.0001
     38 H1         42.3105   18.5847   37.6399 H           1 MOL       0.2248
     39 H2         43.6309   20.1060   36.3736 H           1 MOL       0.0391
     40 H3         47.7354   19.2424   35.9458 H           1 MOL       0.0393
     41 H4         47.4527   17.2600   37.2813 H           1 MOL       0.0546
     42 H5         45.2846   16.6446   38.1175 H           1 MOL       0.0398
     43 H6         45.2874   22.3082   36.8431 H           1 MOL       0.0536
     44 H7         44.6773   22.6836   35.2285 H           1 MOL       0.0536
     45 H8         47.5804   22.9438   36.2263 H           1 MOL       0.0579
     46 H9         46.4898   24.2627   35.7942 H           1 MOL       0.0579
     47 H10        48.4286   21.4754   34.2830 H           1 MOL       0.0579
     48 H11        47.8242   21.9046   32.6785 H           1 MOL       0.0579
     49 H12        45.5577   21.2127   33.2527 H           1 MOL       0.0536
     50 H13        46.6532   19.8872   33.6339 H           1 MOL       0.0536
     51 H14        41.0240   15.0098   35.8280 H           1 MOL       0.0652
     52 H15        38.6666   14.8717   35.6798 H           1 MOL       0.0569
     53 H16        36.5538   15.7627   35.9510 H           1 MOL       0.0406
     54 H17        36.4885   17.3859   36.6893 H           1 MOL       0.0406
     55 H18        36.2104   15.9087   37.6846 H           1 MOL       0.0406
     56 H19        40.6920   17.7256   39.0296 H           1 MOL       0.0658
     57 H20        36.4891   16.5461   39.4873 H           1 MOL       0.0538
     58 H21        35.1232   18.0267   40.7971 H           1 MOL       0.0598
     59 H22        39.4295   19.5888   39.1517 H           1 MOL       0.0568
     60 H23        34.0440   20.5579   41.6109 H           1 MOL       0.0460
     61 H24        33.4306   22.3206   43.0609 H           1 MOL       0.0340
     62 H25        34.8434   22.9359   42.2191 H           1 MOL       0.0340
     63 H26        34.8816   23.4253   44.6802 H           1 MOL       0.0815
     64 H27        36.2782   22.4435   44.2093 H           1 MOL       0.0815
     65 H28        33.7450   21.4687   45.3571 H           1 MOL       0.2013
     66 H29        35.1417   21.6468   46.2208 H           1 MOL       0.2013
     67 H30        34.7623   19.3638   45.6627 H           1 MOL       0.0815
     68 H31        36.2197   19.9468   44.8442 H           1 MOL       0.0815
     69 H32        34.8253   18.6940   43.2561 H           1 MOL       0.0340
     70 H33        33.4051   19.6306   43.6798 H           1 MOL       0.0340
@<TRIPOS>BOND
     1     1     2   2
     2     2     3  am
     3     2    16   1
     4     3     4   1
     5     4     5  ar
     6     4     9  ar
     7     5     6  ar
     8     6     7  ar
     9     6    10   1
    10     7     8  ar
    11     8     9  ar
    12    10    11   1
    13    10    15   1
    14    11    12   1
    15    12    13   1
    16    13    14   1
    17    14    15   1
    18    16    17  ar
    19    16    22  ar
    20    17    18  ar
    21    18    19  ar
    22    19    20   1
    23    19    21  ar
    24    21    22  ar
    25    21    23   1
    26    23    24  ar
    27    23    29  ar
    28    24    25  ar
    29    25    26  ar
    30    26    27  ar
    31    26    30   1
    32    27    28   1
    33    27    29  ar
    34    28    31   1
    35    30    31   2
    36    30    32   1
    37    32    33   1
    38    32    37   1
    39    33    34   1
    40    34    35   1
    41    35    36   1
    42    36    37   1
    43     3    38   1
    44     5    39   1
    45     7    40   1
    46     8    41   1
    47     9    42   1
    48    11    43   1
    49    11    44   1
    50    12    45   1
    51    12    46   1
    52    14    47   1
    53    14    48   1
    54    15    49   1
    55    15    50   1
    56    17    51   1
    57    18    52   1
    58    20    53   1
    59    20    54   1
    60    20    55   1
    61    22    56   1
    62    24    57   1
    63    25    58   1
    64    29    59   1
    65    32    60   1
    66    33    61   1
    67    33    62   1
    68    34    63   1
    69    34    64   1
    70    35    65   1
    71    35    66   1
    72    36    67   1
    73    36    68   1
    74    37    69   1
    75    37    70   1
@<TRIPOS>SUBSTRUCTURE
     1  MOL      2

