@<TRIPOS>MOLECULE
3e93_ligand_004
    70    75
SMALL
GAST_HUCK
****
This file was generated by PARSER (from files_GN.cpp)

@<TRIPOS>ATOM
      1 O25        39.4242   22.5032   41.6828 O.2         1 MOL      -0.3760
      2 C22        40.1877   23.2325   41.0621 C.2         1 MOL       0.2274
      3 N24        41.1415   22.7009   40.3025 N.am        1 MOL      -0.2370
      4 C26        41.3770   21.3748   40.0517 C.ar        1 MOL       0.0536
      5 C27        40.3525   20.4153   39.8636 C.ar        1 MOL      -0.0255
      6 C29        40.6212   19.0644   39.5277 C.ar        1 MOL       0.0259
      7 C32        41.9882   18.6986   39.4084 C.ar        1 MOL      -0.0595
      8 C30        43.0238   19.6330   39.5930 C.ar        1 MOL      -0.0865
      9 C28        42.7170   20.9684   39.9042 C.ar        1 MOL      -0.0544
     10 N31        39.6034   18.1642   39.2977 N.pl3       1 MOL      -0.3075
     11 C33        38.3321   18.1863   40.0087 C.3         1 MOL       0.0499
     12 C35        37.1568   18.3438   39.0122 C.3         1 MOL       0.0673
     13 O37        37.2380   17.3388   37.9796 O.3         1 MOL      -0.3759
     14 C36        38.4955   17.3455   37.2754 C.3         1 MOL       0.0673
     15 C34        39.6896   17.1630   38.2498 C.3         1 MOL       0.0499
     16 C19        40.0037   24.6180   41.1510 C.ar        1 MOL       0.0497
     17 C23        39.4573   25.1863   42.3217 C.ar        1 MOL      -0.0479
     18 C20        39.1391   26.5484   42.3774 C.ar        1 MOL      -0.0536
     19 C18        39.3099   27.3955   41.2543 C.ar        1 MOL      -0.0326
     20 C21        38.8087   28.7935   41.4147 C.3         1 MOL      -0.0276
     21 C15        39.8935   26.8694   40.0493 C.ar        1 MOL      -0.0123
     22 C17        40.2805   25.4940   40.0692 C.ar        1 MOL      -0.0399
     23 C12        40.0251   27.6178   38.8022 C.ar        1 MOL      -0.0269
     24 C9         40.3089   29.0228   38.7471 C.ar        1 MOL      -0.0647
     25 C4         40.3033   29.7281   37.5189 C.ar        1 MOL      -0.0614
     26 C1         40.1408   29.0328   36.3018 C.ar        1 MOL       0.0282
     27 C3         39.9561   27.6548   36.3405 C.ar        1 MOL       0.1528
     28 O8         39.8693   27.1998   35.0705 O.3         1 MOL      -0.1790
     29 C7         39.8615   26.9489   37.5472 C.ar        1 MOL      -0.0179
     30 C2         40.1171   29.3877   34.9519 C.2         1 MOL       0.0534
     31 N6         39.9618   28.2308   34.2681 N.2         1 MOL      -0.1500
     32 C5         40.1010   30.7476   34.3355 C.3         1 MOL       0.0120
     33 C10        39.8951   30.7399   32.7839 C.3         1 MOL       0.0001
     34 C13        39.7853   32.1853   32.2280 C.3         1 MOL      -0.0317
     35 N16        40.9126   33.0486   32.6573 N.4         1 MOL       0.2272
     36 C14        41.1766   33.0403   34.1153 C.3         1 MOL      -0.0317
     37 C11        41.3680   31.5986   34.6535 C.3         1 MOL       0.0001
     38 H1         41.7856   23.3172   39.9218 H           1 MOL       0.2248
     39 H2         39.3846   20.7363   39.8652 H           1 MOL       0.0391
     40 H3         42.2508   17.7294   39.2166 H           1 MOL       0.0393
     41 H4         44.0026   19.3434   39.5051 H           1 MOL       0.0546
     42 H5         43.4765   21.6438   40.0306 H           1 MOL       0.0398
     43 H6         38.2685   18.9612   40.7757 H           1 MOL       0.0536
     44 H7         38.2162   17.2343   40.5273 H           1 MOL       0.0536
     45 H8         37.1652   19.3396   38.5708 H           1 MOL       0.0579
     46 H9         36.2060   18.2139   39.5388 H           1 MOL       0.0579
     47 H10        38.6049   18.2882   36.7295 H           1 MOL       0.0579
     48 H11        38.4888   16.5321   36.5488 H           1 MOL       0.0579
     49 H12        39.6495   16.1619   38.6887 H           1 MOL       0.0536
     50 H13        40.6040   17.2296   37.6578 H           1 MOL       0.0536
     51 H14        39.2643   24.6100   43.1439 H           1 MOL       0.0652
     52 H15        38.7409   26.9098   43.2503 H           1 MOL       0.0569
     53 H16        38.0839   28.9017   42.2563 H           1 MOL       0.0406
     54 H17        38.3012   29.1300   40.5130 H           1 MOL       0.0406
     55 H18        39.6473   29.4461   41.6346 H           1 MOL       0.0406
     56 H19        40.7303   25.0936   39.2397 H           1 MOL       0.0658
     57 H20        40.5180   29.5552   39.6107 H           1 MOL       0.0538
     58 H21        40.4596   30.7335   37.5288 H           1 MOL       0.0598
     59 H22        39.6418   25.9501   37.4839 H           1 MOL       0.0568
     60 H23        39.2330   31.2458   34.7769 H           1 MOL       0.0460
     61 H24        38.9864   30.1926   32.5232 H           1 MOL       0.0340
     62 H25        40.7428   30.2394   32.3041 H           1 MOL       0.0340
     63 H26        38.8452   32.6331   32.5594 H           1 MOL       0.0815
     64 H27        39.7714   32.1543   31.1378 H           1 MOL       0.0815
     65 H28        40.7052   34.0143   32.3868 H           1 MOL       0.2013
     66 H29        41.7598   32.7454   32.1719 H           1 MOL       0.2013
     67 H30        40.3455   33.5267   34.6347 H           1 MOL       0.0815
     68 H31        42.0778   33.6196   34.3110 H           1 MOL       0.0815
     69 H32        42.2458   31.1428   34.1815 H           1 MOL       0.0340
     70 H33        41.5526   31.6556   35.7222 H           1 MOL       0.0340
@<TRIPOS>BOND
     1     1     2   2
     2     2     3  am
     3     2    16   1
     4     3     4   1
     5     4     5  ar
     6     4     9  ar
     7     5     6  ar
     8     6     7  ar
     9     6    10   1
    10     7     8  ar
    11     8     9  ar
    12    10    11   1
    13    10    15   1
    14    11    12   1
    15    12    13   1
    16    13    14   1
    17    14    15   1
    18    16    17  ar
    19    16    22  ar
    20    17    18  ar
    21    18    19  ar
    22    19    20   1
    23    19    21  ar
    24    21    22  ar
    25    21    23   1
    26    23    24  ar
    27    23    29  ar
    28    24    25  ar
    29    25    26  ar
    30    26    27  ar
    31    26    30   1
    32    27    28   1
    33    27    29  ar
    34    28    31   1
    35    30    31   2
    36    30    32   1
    37    32    33   1
    38    32    37   1
    39    33    34   1
    40    34    35   1
    41    35    36   1
    42    36    37   1
    43     3    38   1
    44     5    39   1
    45     7    40   1
    46     8    41   1
    47     9    42   1
    48    11    43   1
    49    11    44   1
    50    12    45   1
    51    12    46   1
    52    14    47   1
    53    14    48   1
    54    15    49   1
    55    15    50   1
    56    17    51   1
    57    18    52   1
    58    20    53   1
    59    20    54   1
    60    20    55   1
    61    22    56   1
    62    24    57   1
    63    25    58   1
    64    29    59   1
    65    32    60   1
    66    33    61   1
    67    33    62   1
    68    34    63   1
    69    34    64   1
    70    35    65   1
    71    35    66   1
    72    36    67   1
    73    36    68   1
    74    37    69   1
    75    37    70   1
@<TRIPOS>SUBSTRUCTURE
     1  MOL      2

