@<TRIPOS>MOLECULE
3e93_ligand_051
    70    75
SMALL
GAST_HUCK
****
This file was generated by PARSER (from files_GN.cpp)

@<TRIPOS>ATOM
      1 O25        39.8108   26.4466   33.8375 O.2         1 MOL      -0.3760
      2 C22        40.2221   26.4240   34.9810 C.2         1 MOL       0.2274
      3 N24        40.3367   27.5142   35.7469 N.am        1 MOL      -0.2370
      4 C26        40.0938   28.8144   35.3734 C.ar        1 MOL       0.0536
      5 C27        40.2121   29.3194   34.0497 C.ar        1 MOL      -0.0255
      6 C29        39.7751   30.6162   33.7022 C.ar        1 MOL       0.0259
      7 C32        39.3135   31.4584   34.7390 C.ar        1 MOL      -0.0595
      8 C30        39.3255   31.0294   36.0754 C.ar        1 MOL      -0.0865
      9 C28        39.7061   29.7184   36.3946 C.ar        1 MOL      -0.0544
     10 N31        39.7843   31.0221   32.3988 N.pl3       1 MOL      -0.3075
     11 C33        38.6338   31.6592   31.7886 C.3         1 MOL       0.0499
     12 C35        39.0440   32.9857   31.1084 C.3         1 MOL       0.0673
     13 O37        40.1911   32.7955   30.2528 O.3         1 MOL      -0.3759
     14 C36        41.3260   32.2101   30.9292 C.3         1 MOL       0.0673
     15 C34        40.9466   30.8383   31.5527 C.3         1 MOL       0.0499
     16 C19        40.6141   25.1894   35.4490 C.ar        1 MOL       0.0497
     17 C23        41.7309   24.5692   34.8594 C.ar        1 MOL      -0.0479
     18 C20        42.1160   23.2849   35.2715 C.ar        1 MOL      -0.0536
     19 C18        41.4049   22.5887   36.2740 C.ar        1 MOL      -0.0326
     20 C21        41.9513   21.2785   36.7280 C.3         1 MOL      -0.0276
     21 C15        40.2380   23.1884   36.8404 C.ar        1 MOL      -0.0123
     22 C17        39.8739   24.4983   36.4243 C.ar        1 MOL      -0.0399
     23 C12        39.4054   22.5312   37.7970 C.ar        1 MOL      -0.0269
     24 C9         39.0508   23.1776   39.0138 C.ar        1 MOL      -0.0647
     25 C4         38.1992   22.5577   39.9526 C.ar        1 MOL      -0.0614
     26 C1         37.6942   21.2760   39.6746 C.ar        1 MOL       0.0282
     27 C3         38.0373   20.6335   38.4921 C.ar        1 MOL       0.1528
     28 O8         37.4398   19.4279   38.4688 O.3         1 MOL      -0.1790
     29 C7         38.8649   21.2456   37.5383 C.ar        1 MOL      -0.0179
     30 C2         36.8435   20.3985   40.3410 C.2         1 MOL       0.0534
     31 N6         36.7413   19.2982   39.5649 N.2         1 MOL      -0.1500
     32 C5         36.1531   20.6038   41.6495 C.3         1 MOL       0.0120
     33 C10        35.3730   19.3290   42.1112 C.3         1 MOL       0.0001
     34 C13        34.5634   19.5730   43.4079 C.3         1 MOL      -0.0317
     35 N16        33.6815   20.7488   43.2618 N.4         1 MOL       0.2272
     36 C14        34.3974   21.9955   42.9243 C.3         1 MOL      -0.0317
     37 C11        35.1806   21.8275   41.6008 C.3         1 MOL       0.0001
     38 H1         40.5786   27.3679   36.6637 H           1 MOL       0.2248
     39 H2         40.5648   28.7182   33.3137 H           1 MOL       0.0391
     40 H3         39.0326   32.4210   34.5305 H           1 MOL       0.0393
     41 H4         39.0332   31.6701   36.8135 H           1 MOL       0.0546
     42 H5         39.6656   29.4063   37.3735 H           1 MOL       0.0398
     43 H6         37.8174   31.8401   32.4879 H           1 MOL       0.0536
     44 H7         38.2399   30.9788   31.0151 H           1 MOL       0.0536
     45 H8         39.2637   33.7400   31.8629 H           1 MOL       0.0579
     46 H9         38.2179   33.3505   30.4955 H           1 MOL       0.0579
     47 H10        41.6862   32.8924   31.7091 H           1 MOL       0.0579
     48 H11        42.1271   32.0749   30.2040 H           1 MOL       0.0579
     49 H12        40.7240   30.1323   30.7549 H           1 MOL       0.0536
     50 H13        41.8161   30.4694   32.1055 H           1 MOL       0.0536
     51 H14        42.2810   25.0477   34.1462 H           1 MOL       0.0652
     52 H15        42.9444   22.8687   34.8337 H           1 MOL       0.0569
     53 H16        42.9493   21.0829   36.3326 H           1 MOL       0.0406
     54 H17        41.3203   20.4611   36.3940 H           1 MOL       0.0406
     55 H18        42.0174   21.2678   37.8182 H           1 MOL       0.0406
     56 H19        39.0308   24.9421   36.8110 H           1 MOL       0.0658
     57 H20        39.4108   24.1132   39.2283 H           1 MOL       0.0538
     58 H21        37.9667   23.0405   40.8189 H           1 MOL       0.0598
     59 H22        39.0366   20.7557   36.6588 H           1 MOL       0.0568
     60 H23        36.9316   20.8087   42.3928 H           1 MOL       0.0460
     61 H24        36.0715   18.5057   42.2770 H           1 MOL       0.0340
     62 H25        34.6728   19.0266   41.3304 H           1 MOL       0.0340
     63 H26        35.2423   19.7156   44.2573 H           1 MOL       0.0815
     64 H27        33.9407   18.6994   43.6159 H           1 MOL       0.0815
     65 H28        33.1775   20.8932   44.1332 H           1 MOL       0.2013
     66 H29        33.0020   20.5503   42.5269 H           1 MOL       0.2013
     67 H30        35.0803   22.2694   43.7381 H           1 MOL       0.0815
     68 H31        33.6670   22.7990   42.8147 H           1 MOL       0.0815
     69 H32        34.4651   21.6954   40.7898 H           1 MOL       0.0340
     70 H33        35.7257   22.7524   41.4174 H           1 MOL       0.0340
@<TRIPOS>BOND
     1     1     2   2
     2     2     3  am
     3     2    16   1
     4     3     4   1
     5     4     5  ar
     6     4     9  ar
     7     5     6  ar
     8     6     7  ar
     9     6    10   1
    10     7     8  ar
    11     8     9  ar
    12    10    11   1
    13    10    15   1
    14    11    12   1
    15    12    13   1
    16    13    14   1
    17    14    15   1
    18    16    17  ar
    19    16    22  ar
    20    17    18  ar
    21    18    19  ar
    22    19    20   1
    23    19    21  ar
    24    21    22  ar
    25    21    23   1
    26    23    24  ar
    27    23    29  ar
    28    24    25  ar
    29    25    26  ar
    30    26    27  ar
    31    26    30   1
    32    27    28   1
    33    27    29  ar
    34    28    31   1
    35    30    31   2
    36    30    32   1
    37    32    33   1
    38    32    37   1
    39    33    34   1
    40    34    35   1
    41    35    36   1
    42    36    37   1
    43     3    38   1
    44     5    39   1
    45     7    40   1
    46     8    41   1
    47     9    42   1
    48    11    43   1
    49    11    44   1
    50    12    45   1
    51    12    46   1
    52    14    47   1
    53    14    48   1
    54    15    49   1
    55    15    50   1
    56    17    51   1
    57    18    52   1
    58    20    53   1
    59    20    54   1
    60    20    55   1
    61    22    56   1
    62    24    57   1
    63    25    58   1
    64    29    59   1
    65    32    60   1
    66    33    61   1
    67    33    62   1
    68    34    63   1
    69    34    64   1
    70    35    65   1
    71    35    66   1
    72    36    67   1
    73    36    68   1
    74    37    69   1
    75    37    70   1
@<TRIPOS>SUBSTRUCTURE
     1  MOL      2

