@<TRIPOS>MOLECULE
3ebp_ligand_043
    49    52
SMALL
GAST_HUCK
****
This file was generated by PARSER (from files_GN.cpp)

@<TRIPOS>ATOM
      1 C1         37.9739   31.8243   23.7563 C.3         1 CPB      -0.0430
      2 N1         37.7923   32.3994   25.1165 N.4         1 CPB       0.2351
      3 C16        38.5467   31.6399   26.1634 C.3         1 CPB      -0.0305
      4 C15        38.1948   32.1673   27.5794 C.3         1 CPB      -0.0017
      5 C14        38.4717   33.6996   27.6977 C.3         1 CPB       0.0215
      6 C13        37.7233   34.4576   26.5551 C.3         1 CPB       0.1030
      7 C12        38.0762   33.8690   25.1631 C.3         1 CPB      -0.0040
      8 C8         38.2685   34.3838   29.0329 C.ar        1 CPB       0.0228
      9 C9         39.2551   35.3107   29.4811 C.ar        1 CPB       0.1322
     10 O1         40.3662   35.5434   28.6836 O.3         1 CPB      -0.2448
     11 C2         41.3746   36.3256   29.1239 C.2         1 CPB       0.1417
     12 C3         41.2752   37.0132   30.2800 C.2         1 CPB       0.0078
     13 C4         40.1678   36.8887   31.0607 C.2         1 CPB       0.0995
     14 O4         40.1343   37.5462   32.0938 O.2         1 CPB      -0.4249
     15 C10        39.1228   36.0205   30.7088 C.ar        1 CPB       0.0721
     16 C5         37.9696   35.8042   31.5004 C.ar        1 CPB       0.0869
     17 O5         37.7570   36.4303   32.6864 O.3         1 CPB      -0.3368
     18 C6         36.9805   34.9104   31.0646 C.ar        1 CPB      -0.0144
     19 C7         37.1166   34.2155   29.8502 C.ar        1 CPB       0.0802
     20 O7         36.0766   33.4167   29.5189 O.3         1 CPB      -0.3389
     21 C21        42.4810   36.4381   28.2962 C.ar        1 CPB       0.0440
     22 C22        43.7990   36.1267   28.7303 C.ar        1 CPB       0.0577
     23 CL1        44.1409   35.5008   30.2734 Cl          1 CPB      -0.0650
     24 C23        44.8860   36.2910   27.8470 C.ar        1 CPB      -0.0431
     25 C24        44.6773   36.7552   26.5371 C.ar        1 CPB      -0.0577
     26 C25        43.3761   37.0456   26.0949 C.ar        1 CPB      -0.0569
     27 C26        42.2844   36.8807   26.9655 C.ar        1 CPB      -0.0446
     28 O3         36.3101   34.3786   26.7324 O.3         1 CPB      -0.3849
     29 H1         37.6218   30.7926   23.7343 H           1 CPB       0.0778
     30 H2         39.0231   31.8454   23.4512 H           1 CPB       0.0778
     31 H3         37.3810   32.3809   23.0293 H           1 CPB       0.0778
     32 H4         36.7992   32.2903   25.3394 H           1 CPB       0.2031
     33 H5         39.6262   31.7176   25.9950 H           1 CPB       0.0816
     34 H6         38.2764   30.5808   26.1229 H           1 CPB       0.0816
     35 H7         38.7801   31.6256   28.3269 H           1 CPB       0.0335
     36 H8         37.1387   31.9458   27.7365 H           1 CPB       0.0335
     37 H9         39.5397   33.7784   27.4774 H           1 CPB       0.0427
     38 H10        37.9991   35.5162   26.5605 H           1 CPB       0.0665
     39 H11        37.4764   34.3915   24.4122 H           1 CPB       0.0841
     40 H12        39.1306   34.0638   24.9409 H           1 CPB       0.0841
     41 H13        42.0118   37.6245   30.5593 H           1 CPB       0.0418
     42 H14        37.1439   37.1666   32.4831 H           1 CPB       0.2482
     43 H15        36.1423   34.7700   31.6365 H           1 CPB       0.0388
     44 H16        35.2859   33.9909   29.5866 H           1 CPB       0.2468
     45 H17        45.8382   36.0702   28.1501 H           1 CPB       0.0633
     46 H18        45.4711   36.8754   25.9044 H           1 CPB       0.0647
     47 H19        43.2237   37.3826   25.1407 H           1 CPB       0.0629
     48 H20        41.3472   37.1134   26.6241 H           1 CPB       0.0661
     49 H21        36.1619   33.5894   27.2919 H           1 CPB       0.2102
@<TRIPOS>BOND
     1     1     2   1
     2     2     3   1
     3     2     7   1
     4     3     4   1
     5     4     5   1
     6     5     6   1
     7     5     8   1
     8     6     7   1
     9     6    28   1
    10     8     9  ar
    11     8    19  ar
    12     9    10   1
    13     9    15  ar
    14    10    11   1
    15    11    12   2
    16    11    21   1
    17    12    13   1
    18    13    14   2
    19    13    15   1
    20    15    16  ar
    21    16    17   1
    22    16    18  ar
    23    18    19  ar
    24    19    20   1
    25    21    22  ar
    26    21    27  ar
    27    22    23   1
    28    22    24  ar
    29    24    25  ar
    30    25    26  ar
    31    26    27  ar
    32     1    29   1
    33     1    30   1
    34     1    31   1
    35     2    32   1
    36     3    33   1
    37     3    34   1
    38     4    35   1
    39     4    36   1
    40     5    37   1
    41     6    38   1
    42     7    39   1
    43     7    40   1
    44    12    41   1
    45    17    42   1
    46    18    43   1
    47    20    44   1
    48    24    45   1
    49    25    46   1
    50    26    47   1
    51    27    48   1
    52    28    49   1
@<TRIPOS>SUBSTRUCTURE
     1  CPB      1

