@<TRIPOS>MOLECULE
3ebp_ligand_026
    49    52
SMALL
GAST_HUCK
****
This file was generated by PARSER (from files_GN.cpp)

@<TRIPOS>ATOM
      1 C1         46.7961   39.3784   22.4024 C.3         1 CPB      -0.0430
      2 N1         45.8258   38.8227   23.3842 N.4         1 CPB       0.2351
      3 C16        45.7169   37.3330   23.2964 C.3         1 CPB      -0.0305
      4 C15        44.5684   36.8203   24.2021 C.3         1 CPB      -0.0017
      5 C14        44.7543   37.2974   25.6755 C.3         1 CPB       0.0215
      6 C13        44.9732   38.8406   25.7541 C.3         1 CPB       0.1030
      7 C12        46.0954   39.2895   24.7803 C.3         1 CPB      -0.0040
      8 C8         43.7159   36.7798   26.6444 C.ar        1 CPB       0.0228
      9 C9         42.3123   36.9341   26.4383 C.ar        1 CPB       0.1322
     10 O1         41.8447   37.6893   25.3728 O.3         1 CPB      -0.2448
     11 C2         40.5215   37.7389   25.0857 C.2         1 CPB       0.1417
     12 C3         39.6160   37.1122   25.8634 C.2         1 CPB       0.0078
     13 C4         40.0086   36.4829   27.0029 C.2         1 CPB       0.0995
     14 O4         39.1264   36.0430   27.7293 O.2         1 CPB      -0.4249
     15 C10        41.3658   36.3470   27.3283 C.ar        1 CPB       0.0721
     16 C5         41.8324   35.6664   28.4790 C.ar        1 CPB       0.0869
     17 O5         41.0050   35.1113   29.3983 O.3         1 CPB      -0.3368
     18 C6         43.2078   35.5624   28.7242 C.ar        1 CPB      -0.0144
     19 C7         44.1375   36.1003   27.8208 C.ar        1 CPB       0.0802
     20 O7         45.4474   35.9579   28.1522 O.3         1 CPB      -0.3389
     21 C21        40.1507   38.4220   23.9304 C.ar        1 CPB       0.0440
     22 C22        40.3407   39.8243   23.7802 C.ar        1 CPB       0.0577
     23 CL1        40.9097   40.8126   25.0386 Cl          1 CPB      -0.0650
     24 C23        40.0041   40.4573   22.5638 C.ar        1 CPB      -0.0431
     25 C24        39.4632   39.7126   21.5014 C.ar        1 CPB      -0.0577
     26 C25        39.2585   38.3311   21.6452 C.ar        1 CPB      -0.0569
     27 C26        39.5968   37.6919   22.8505 C.ar        1 CPB      -0.0446
     28 O3         43.8009   39.5860   25.4389 O.3         1 CPB      -0.3849
     29 H1         46.5219   39.0792   21.3893 H           1 CPB       0.0778
     30 H2         47.8109   39.0308   22.6098 H           1 CPB       0.0778
     31 H3         46.7846   40.4692   22.4353 H           1 CPB       0.0778
     32 H4         44.9089   39.1948   23.1239 H           1 CPB       0.2031
     33 H5         46.6596   36.8579   23.5896 H           1 CPB       0.0816
     34 H6         45.4972   37.0293   22.2684 H           1 CPB       0.0816
     35 H7         44.5413   35.7270   24.1676 H           1 CPB       0.0335
     36 H8         43.6367   37.1973   23.7833 H           1 CPB       0.0335
     37 H9         45.7220   36.8692   25.9559 H           1 CPB       0.0427
     38 H10        45.2708   39.1093   26.7721 H           1 CPB       0.0665
     39 H11        46.1510   40.3815   24.8081 H           1 CPB       0.0841
     40 H12        47.0583   38.9015   25.1306 H           1 CPB       0.0841
     41 H13        38.6516   37.1198   25.6125 H           1 CPB       0.0418
     42 H14        40.5462   34.3887   28.9238 H           1 CPB       0.2482
     43 H15        43.5382   35.0797   29.5648 H           1 CPB       0.0388
     44 H16        45.6813   35.0553   27.8513 H           1 CPB       0.2468
     45 H17        40.1552   41.4630   22.4353 H           1 CPB       0.0633
     46 H18        39.2154   40.1735   20.6243 H           1 CPB       0.0647
     47 H19        38.8726   37.7862   20.8701 H           1 CPB       0.0629
     48 H20        39.4529   36.6809   22.9292 H           1 CPB       0.0661
     49 H21        43.1636   39.3807   26.1528 H           1 CPB       0.2102
@<TRIPOS>BOND
     1     1     2   1
     2     2     3   1
     3     2     7   1
     4     3     4   1
     5     4     5   1
     6     5     6   1
     7     5     8   1
     8     6     7   1
     9     6    28   1
    10     8     9  ar
    11     8    19  ar
    12     9    10   1
    13     9    15  ar
    14    10    11   1
    15    11    12   2
    16    11    21   1
    17    12    13   1
    18    13    14   2
    19    13    15   1
    20    15    16  ar
    21    16    17   1
    22    16    18  ar
    23    18    19  ar
    24    19    20   1
    25    21    22  ar
    26    21    27  ar
    27    22    23   1
    28    22    24  ar
    29    24    25  ar
    30    25    26  ar
    31    26    27  ar
    32     1    29   1
    33     1    30   1
    34     1    31   1
    35     2    32   1
    36     3    33   1
    37     3    34   1
    38     4    35   1
    39     4    36   1
    40     5    37   1
    41     6    38   1
    42     7    39   1
    43     7    40   1
    44    12    41   1
    45    17    42   1
    46    18    43   1
    47    20    44   1
    48    24    45   1
    49    25    46   1
    50    26    47   1
    51    27    48   1
    52    28    49   1
@<TRIPOS>SUBSTRUCTURE
     1  CPB      1

