@<TRIPOS>MOLECULE
3ebp_ligand_061
    49    52
SMALL
GAST_HUCK
****
This file was generated by PARSER (from files_GN.cpp)

@<TRIPOS>ATOM
      1 C1         42.2044   40.8219   25.5203 C.3         1 CPB      -0.0430
      2 N1         41.3981   39.8111   26.2657 N.4         1 CPB       0.2351
      3 C16        39.9294   40.0999   26.2304 C.3         1 CPB      -0.0305
      4 C15        39.1519   39.1364   27.1673 C.3         1 CPB      -0.0017
      5 C14        39.4538   37.6524   26.7883 C.3         1 CPB       0.0215
      6 C13        40.9870   37.3676   26.7477 C.3         1 CPB       0.1030
      7 C12        41.7124   38.4049   25.8485 C.3         1 CPB      -0.0040
      8 C8         38.6921   36.6017   27.5695 C.ar        1 CPB       0.0228
      9 C9         38.6888   36.5481   28.9966 C.ar        1 CPB       0.1322
     10 O1         39.3592   37.5118   29.7291 O.3         1 CPB      -0.2448
     11 C2         39.4434   37.4420   31.0689 C.2         1 CPB       0.1417
     12 C3         38.7840   36.4960   31.7643 C.2         1 CPB       0.0078
     13 C4         38.0546   35.5521   31.1054 C.2         1 CPB       0.0995
     14 O4         37.4306   34.7458   31.7813 O.2         1 CPB      -0.4249
     15 C10        38.0012   35.5195   29.7007 C.ar        1 CPB       0.0721
     16 C5         37.3118   34.5235   28.9654 C.ar        1 CPB       0.0869
     17 O5         36.6241   33.5071   29.5471 O.3         1 CPB      -0.3368
     18 C6         37.3213   34.5513   27.5649 C.ar        1 CPB      -0.0144
     19 C7         37.9974   35.5698   26.8746 C.ar        1 CPB       0.0802
     20 O7         37.9096   35.5019   25.5202 O.3         1 CPB      -0.3389
     21 C21        40.1768   38.4290   31.6971 C.ar        1 CPB       0.0440
     22 C22        39.6854   39.7491   31.8511 C.ar        1 CPB       0.0577
     23 CL1        38.1114   40.1845   31.3706 Cl          1 CPB      -0.0650
     24 C23        40.5128   40.7485   32.4086 C.ar        1 CPB      -0.0431
     25 C24        41.8206   40.4388   32.8203 C.ar        1 CPB      -0.0577
     26 C25        42.3061   39.1274   32.6912 C.ar        1 CPB      -0.0569
     27 C26        41.4890   38.1248   32.1285 C.ar        1 CPB      -0.0446
     28 O3         41.5711   37.3896   28.0486 O.3         1 CPB      -0.3849
     29 H1         42.0280   41.8192   25.9280 H           1 CPB       0.0778
     30 H2         41.9538   40.8286   24.4559 H           1 CPB       0.0778
     31 H3         43.2716   40.6130   25.6264 H           1 CPB       0.0778
     32 H4         41.6849   39.8936   27.2421 H           1 CPB       0.2031
     33 H5         39.5459   40.0061   25.2078 H           1 CPB       0.0816
     34 H6         39.7400   41.1264   26.5602 H           1 CPB       0.0816
     35 H7         38.0814   39.3279   27.0743 H           1 CPB       0.0335
     36 H8         39.4482   39.3627   28.1897 H           1 CPB       0.0335
     37 H9         39.1493   37.5956   25.7398 H           1 CPB       0.0427
     38 H10        41.1460   36.3686   26.3271 H           1 CPB       0.0665
     39 H11        42.7896   38.2242   25.9221 H           1 CPB       0.0841
     40 H12        41.4247   38.2458   24.8035 H           1 CPB       0.0841
     41 H13        38.8192   36.4919   32.7592 H           1 CPB       0.0418
     42 H14        37.2627   33.0832   30.1574 H           1 CPB       0.2482
     43 H15        36.8163   33.8310   27.0421 H           1 CPB       0.0388
     44 H16        37.4863   36.3444   25.2575 H           1 CPB       0.2468
     45 H17        40.1749   41.7086   32.5085 H           1 CPB       0.0633
     46 H18        42.4204   41.1670   33.2157 H           1 CPB       0.0647
     47 H19        43.2570   38.9012   32.9928 H           1 CPB       0.0629
     48 H20        41.8662   37.1781   32.0314 H           1 CPB       0.0661
     49 H21        42.4955   37.0802   27.9311 H           1 CPB       0.2102
@<TRIPOS>BOND
     1     1     2   1
     2     2     3   1
     3     2     7   1
     4     3     4   1
     5     4     5   1
     6     5     6   1
     7     5     8   1
     8     6     7   1
     9     6    28   1
    10     8     9  ar
    11     8    19  ar
    12     9    10   1
    13     9    15  ar
    14    10    11   1
    15    11    12   2
    16    11    21   1
    17    12    13   1
    18    13    14   2
    19    13    15   1
    20    15    16  ar
    21    16    17   1
    22    16    18  ar
    23    18    19  ar
    24    19    20   1
    25    21    22  ar
    26    21    27  ar
    27    22    23   1
    28    22    24  ar
    29    24    25  ar
    30    25    26  ar
    31    26    27  ar
    32     1    29   1
    33     1    30   1
    34     1    31   1
    35     2    32   1
    36     3    33   1
    37     3    34   1
    38     4    35   1
    39     4    36   1
    40     5    37   1
    41     6    38   1
    42     7    39   1
    43     7    40   1
    44    12    41   1
    45    17    42   1
    46    18    43   1
    47    20    44   1
    48    24    45   1
    49    25    46   1
    50    26    47   1
    51    27    48   1
    52    28    49   1
@<TRIPOS>SUBSTRUCTURE
     1  CPB      1

