@<TRIPOS>MOLECULE
3ebp_ligand_013
    49    52
SMALL
GAST_HUCK
****
This file was generated by PARSER (from files_GN.cpp)

@<TRIPOS>ATOM
      1 C1         43.9796   43.2467   23.2372 C.3         1 CPB      -0.0430
      2 N1         43.0476   42.0899   23.3434 N.4         1 CPB       0.2351
      3 C16        43.7417   40.7777   23.1688 C.3         1 CPB      -0.0305
      4 C15        42.7210   39.6137   23.1042 C.3         1 CPB      -0.0017
      5 C14        41.7646   39.6167   24.3368 C.3         1 CPB       0.0215
      6 C13        41.1332   41.0272   24.5869 C.3         1 CPB       0.1030
      7 C12        42.2242   42.1336   24.5940 C.3         1 CPB      -0.0040
      8 C8         40.7601   38.4871   24.3309 C.ar        1 CPB       0.0228
      9 C9         40.7401   37.5028   25.3648 C.ar        1 CPB       0.1322
     10 O1         41.6624   37.5708   26.3984 O.3         1 CPB      -0.2448
     11 C2         41.7148   36.6050   27.3509 C.2         1 CPB       0.1417
     12 C3         40.8016   35.6117   27.3801 C.2         1 CPB       0.0078
     13 C4         39.8322   35.5340   26.4323 C.2         1 CPB       0.0995
     14 O4         39.0275   34.6155   26.5285 O.2         1 CPB      -0.4249
     15 C10        39.7796   36.4495   25.3715 C.ar        1 CPB       0.0721
     16 C5         38.8385   36.3733   24.3177 C.ar        1 CPB       0.0869
     17 O5         37.8578   35.4388   24.2761 O.3         1 CPB      -0.3368
     18 C6         38.8655   37.3161   23.2829 C.ar        1 CPB      -0.0144
     19 C7         39.7975   38.3652   23.2929 C.ar        1 CPB       0.0802
     20 O7         39.7020   39.2507   22.2730 O.3         1 CPB      -0.3389
     21 C21        42.7555   36.6738   28.2804 C.ar        1 CPB       0.0440
     22 C22        44.1157   36.8128   27.8804 C.ar        1 CPB       0.0577
     23 CL1        44.6137   36.8600   26.2548 Cl          1 CPB      -0.0650
     24 C23        45.1374   36.8512   28.8534 C.ar        1 CPB      -0.0431
     25 C24        44.8275   36.7646   30.2210 C.ar        1 CPB      -0.0577
     26 C25        43.4907   36.6424   30.6292 C.ar        1 CPB      -0.0569
     27 C26        42.4662   36.5966   29.6684 C.ar        1 CPB      -0.0446
     28 O3         40.1253   41.4078   23.6493 O.3         1 CPB      -0.3849
     29 H1         44.5143   43.2198   22.2854 H           1 CPB       0.0778
     30 H2         44.7088   43.2434   24.0506 H           1 CPB       0.0778
     31 H3         43.4205   44.1851   23.2678 H           1 CPB       0.0778
     32 H4         42.3957   42.1897   22.5619 H           1 CPB       0.2031
     33 H5         44.4431   40.6034   23.9912 H           1 CPB       0.0816
     34 H6         44.3131   40.7768   22.2352 H           1 CPB       0.0816
     35 H7         43.2684   38.6674   23.0715 H           1 CPB       0.0335
     36 H8         42.1654   39.7130   22.1718 H           1 CPB       0.0335
     37 H9         42.4370   39.4720   25.1852 H           1 CPB       0.0427
     38 H10        40.6475   41.0144   25.5674 H           1 CPB       0.0665
     39 H11        41.7268   43.1037   24.6827 H           1 CPB       0.0841
     40 H12        42.8627   42.0098   25.4745 H           1 CPB       0.0841
     41 H13        40.8582   34.9028   28.0799 H           1 CPB       0.0418
     42 H14        37.1293   35.8421   24.7941 H           1 CPB       0.2482
     43 H15        38.1776   37.2547   22.5263 H           1 CPB       0.0388
     44 H16        38.8668   39.7305   22.4541 H           1 CPB       0.2468
     45 H17        46.1179   36.9285   28.5711 H           1 CPB       0.0633
     46 H18        45.5755   36.7902   30.9175 H           1 CPB       0.0647
     47 H19        43.2639   36.5824   31.6245 H           1 CPB       0.0629
     48 H20        41.4996   36.5161   29.9974 H           1 CPB       0.0661
     49 H21        40.5876   41.7753   22.8664 H           1 CPB       0.2102
@<TRIPOS>BOND
     1     1     2   1
     2     2     3   1
     3     2     7   1
     4     3     4   1
     5     4     5   1
     6     5     6   1
     7     5     8   1
     8     6     7   1
     9     6    28   1
    10     8     9  ar
    11     8    19  ar
    12     9    10   1
    13     9    15  ar
    14    10    11   1
    15    11    12   2
    16    11    21   1
    17    12    13   1
    18    13    14   2
    19    13    15   1
    20    15    16  ar
    21    16    17   1
    22    16    18  ar
    23    18    19  ar
    24    19    20   1
    25    21    22  ar
    26    21    27  ar
    27    22    23   1
    28    22    24  ar
    29    24    25  ar
    30    25    26  ar
    31    26    27  ar
    32     1    29   1
    33     1    30   1
    34     1    31   1
    35     2    32   1
    36     3    33   1
    37     3    34   1
    38     4    35   1
    39     4    36   1
    40     5    37   1
    41     6    38   1
    42     7    39   1
    43     7    40   1
    44    12    41   1
    45    17    42   1
    46    18    43   1
    47    20    44   1
    48    24    45   1
    49    25    46   1
    50    26    47   1
    51    27    48   1
    52    28    49   1
@<TRIPOS>SUBSTRUCTURE
     1  CPB      1

