@<TRIPOS>MOLECULE
3ebp_ligand_079
    49    52
SMALL
GAST_HUCK
****
This file was generated by PARSER (from files_GN.cpp)

@<TRIPOS>ATOM
      1 C1         42.8331   38.6750   30.6282 C.3         1 CPB      -0.0430
      2 N1         41.9257   37.8680   29.7636 N.4         1 CPB       0.2351
      3 C16        42.6819   36.9569   28.8499 C.3         1 CPB      -0.0305
      4 C15        41.7156   36.2945   27.8427 C.3         1 CPB      -0.0017
      5 C14        40.5915   35.4895   28.5701 C.3         1 CPB       0.0215
      6 C13        39.8803   36.3574   29.6541 C.3         1 CPB       0.1030
      7 C12        40.8872   37.1344   30.5517 C.3         1 CPB      -0.0040
      8 C8         39.6020   34.7344   27.7056 C.ar        1 CPB       0.0228
      9 C9         39.1077   35.2083   26.4549 C.ar        1 CPB       0.1322
     10 O1         39.4234   36.4804   26.0211 O.3         1 CPB      -0.2448
     11 C2         39.1486   36.9246   24.7747 C.2         1 CPB       0.1417
     12 C3         38.3401   36.1820   23.9868 C.2         1 CPB       0.0078
     13 C4         37.8461   34.9897   24.4185 C.2         1 CPB       0.0995
     14 O4         37.0207   34.4432   23.6991 O.2         1 CPB      -0.4249
     15 C10        38.2344   34.4297   25.6445 C.ar        1 CPB       0.0721
     16 C5         37.8145   33.1576   26.1144 C.ar        1 CPB       0.0869
     17 O5         37.0394   32.2847   25.4126 O.3         1 CPB      -0.3368
     18 C6         38.2126   32.7248   27.3864 C.ar        1 CPB      -0.0144
     19 C7         39.0834   33.4985   28.1740 C.ar        1 CPB       0.0802
     20 O7         39.4085   33.0092   29.3982 O.3         1 CPB      -0.3389
     21 C21        39.6782   38.1656   24.3872 C.ar        1 CPB       0.0440
     22 C22        39.6965   39.3036   25.2515 C.ar        1 CPB       0.0577
     23 CL1        38.9783   39.3356   26.7883 Cl          1 CPB      -0.0650
     24 C23        40.2541   40.5234   24.8224 C.ar        1 CPB      -0.0431
     25 C24        40.7900   40.6501   23.5328 C.ar        1 CPB      -0.0577
     26 C25        40.7782   39.5470   22.6635 C.ar        1 CPB      -0.0569
     27 C26        40.2346   38.3261   23.0884 C.ar        1 CPB      -0.0446
     28 O3         38.9696   37.2671   29.0468 O.3         1 CPB      -0.3849
     29 H1         43.5083   39.2736   30.0125 H           1 CPB       0.0778
     30 H2         43.4310   38.0349   31.2827 H           1 CPB       0.0778
     31 H3         42.2572   39.3669   31.2466 H           1 CPB       0.0778
     32 H4         41.4268   38.5356   29.1704 H           1 CPB       0.2031
     33 H5         43.2093   36.1845   29.4155 H           1 CPB       0.0816
     34 H6         43.4242   37.5238   28.2811 H           1 CPB       0.0816
     35 H7         42.2722   35.6337   27.1737 H           1 CPB       0.0335
     36 H8         41.3144   37.1149   27.2558 H           1 CPB       0.0335
     37 H9         41.1582   34.7306   29.1202 H           1 CPB       0.0427
     38 H10        39.2871   35.7017   30.2969 H           1 CPB       0.0665
     39 H11        40.3201   37.8428   31.1621 H           1 CPB       0.0841
     40 H12        41.3750   36.4321   31.2316 H           1 CPB       0.0841
     41 H13        38.0786   36.5298   23.0958 H           1 CPB       0.0418
     42 H14        37.1249   32.5140   24.4690 H           1 CPB       0.2482
     43 H15        37.8806   31.8254   27.7456 H           1 CPB       0.0388
     44 H16        38.5521   32.7820   29.8188 H           1 CPB       0.2468
     45 H17        40.2644   41.3396   25.4424 H           1 CPB       0.0633
     46 H18        41.1829   41.5410   23.2298 H           1 CPB       0.0647
     47 H19        41.1700   39.6419   21.7235 H           1 CPB       0.0629
     48 H20        40.2664   37.5368   22.4383 H           1 CPB       0.0661
     49 H21        38.4978   37.6982   29.7902 H           1 CPB       0.2102
@<TRIPOS>BOND
     1     1     2   1
     2     2     3   1
     3     2     7   1
     4     3     4   1
     5     4     5   1
     6     5     6   1
     7     5     8   1
     8     6     7   1
     9     6    28   1
    10     8     9  ar
    11     8    19  ar
    12     9    10   1
    13     9    15  ar
    14    10    11   1
    15    11    12   2
    16    11    21   1
    17    12    13   1
    18    13    14   2
    19    13    15   1
    20    15    16  ar
    21    16    17   1
    22    16    18  ar
    23    18    19  ar
    24    19    20   1
    25    21    22  ar
    26    21    27  ar
    27    22    23   1
    28    22    24  ar
    29    24    25  ar
    30    25    26  ar
    31    26    27  ar
    32     1    29   1
    33     1    30   1
    34     1    31   1
    35     2    32   1
    36     3    33   1
    37     3    34   1
    38     4    35   1
    39     4    36   1
    40     5    37   1
    41     6    38   1
    42     7    39   1
    43     7    40   1
    44    12    41   1
    45    17    42   1
    46    18    43   1
    47    20    44   1
    48    24    45   1
    49    25    46   1
    50    26    47   1
    51    27    48   1
    52    28    49   1
@<TRIPOS>SUBSTRUCTURE
     1  CPB      1

