@<TRIPOS>MOLECULE
3ebp_ligand_048
    49    52
SMALL
GAST_HUCK
****
This file was generated by PARSER (from files_GN.cpp)

@<TRIPOS>ATOM
      1 C1         36.6984   35.4033   32.4390 C.3         1 CPB      -0.0430
      2 N1         37.4352   35.9106   33.6308 N.4         1 CPB       0.2351
      3 C16        37.5083   37.4024   33.6736 C.3         1 CPB      -0.0305
      4 C15        38.4390   37.8670   34.8192 C.3         1 CPB      -0.0017
      5 C14        37.9746   37.2930   36.1968 C.3         1 CPB       0.0215
      6 C13        37.7753   35.7466   36.1477 C.3         1 CPB       0.1030
      7 C12        36.9265   35.3272   34.9115 C.3         1 CPB      -0.0040
      8 C8         38.7753   37.7394   37.4023 C.ar        1 CPB       0.0228
      9 C9         40.1952   37.6415   37.4720 C.ar        1 CPB       0.1322
     10 O1         40.8961   37.0905   36.4142 O.3         1 CPB      -0.2448
     11 C2         42.2446   37.0039   36.4334 C.2         1 CPB       0.1417
     12 C3         42.9556   37.4182   37.4986 C.2         1 CPB       0.0078
     13 C4         42.3246   37.9772   38.5678 C.2         1 CPB       0.0995
     14 O4         43.0315   38.4170   39.4670 O.2         1 CPB      -0.4249
     15 C10        40.9259   38.0947   38.6107 C.ar        1 CPB       0.0721
     16 C5         40.2142   38.6349   39.7091 C.ar        1 CPB       0.0869
     17 O5         40.8456   39.0298   40.8451 O.3         1 CPB      -0.3368
     18 C6         38.8101   38.7031   39.6690 C.ar        1 CPB      -0.0144
     19 C7         38.1003   38.2527   38.5459 C.ar        1 CPB       0.0802
     20 O7         36.7421   38.3298   38.6329 O.3         1 CPB      -0.3389
     21 C21        42.8530   36.4948   35.2953 C.ar        1 CPB       0.0440
     22 C22        42.9555   37.2566   34.1028 C.ar        1 CPB       0.0577
     23 CL1        42.3963   38.8560   33.9820 Cl          1 CPB      -0.0650
     24 C23        43.5747   36.6979   32.9630 C.ar        1 CPB      -0.0431
     25 C24        44.0749   35.3852   32.9980 C.ar        1 CPB      -0.0577
     26 C25        43.9716   34.6259   34.1741 C.ar        1 CPB      -0.0569
     27 C26        43.3711   35.1779   35.3201 C.ar        1 CPB      -0.0446
     28 O3         39.0242   35.0566   36.1565 O.3         1 CPB      -0.3849
     29 H1         37.1335   35.7999   31.5212 H           1 CPB       0.0778
     30 H2         35.6421   35.6797   32.4746 H           1 CPB       0.0778
     31 H3         36.7738   34.3129   32.3891 H           1 CPB       0.0778
     32 H4         38.3979   35.5923   33.5214 H           1 CPB       0.2031
     33 H5         36.5108   37.8219   33.8152 H           1 CPB       0.0816
     34 H6         37.9044   37.7885   32.7276 H           1 CPB       0.0816
     35 H7         38.4477   38.9593   34.8595 H           1 CPB       0.0335
     36 H8         39.4382   37.5300   34.5556 H           1 CPB       0.0335
     37 H9         36.9626   37.7001   36.2991 H           1 CPB       0.0427
     38 H10        37.2373   35.4355   37.0498 H           1 CPB       0.0665
     39 H11        36.9271   34.2389   34.8458 H           1 CPB       0.0841
     40 H12        35.8911   35.6403   35.0711 H           1 CPB       0.0841
     41 H13        43.9468   37.3382   37.4935 H           1 CPB       0.0418
     42 H14        40.4640   39.9000   41.1019 H           1 CPB       0.2482
     43 H15        38.2988   39.0779   40.4777 H           1 CPB       0.0388
     44 H16        36.4190   37.4056   38.5259 H           1 CPB       0.2468
     45 H17        43.6598   37.2394   32.0999 H           1 CPB       0.0633
     46 H18        44.5198   34.9843   32.1671 H           1 CPB       0.0647
     47 H19        44.3395   33.6715   34.1984 H           1 CPB       0.0629
     48 H20        43.3037   34.6048   36.1647 H           1 CPB       0.0661
     49 H21        38.8312   34.1665   36.5323 H           1 CPB       0.2102
@<TRIPOS>BOND
     1     1     2   1
     2     2     3   1
     3     2     7   1
     4     3     4   1
     5     4     5   1
     6     5     6   1
     7     5     8   1
     8     6     7   1
     9     6    28   1
    10     8     9  ar
    11     8    19  ar
    12     9    10   1
    13     9    15  ar
    14    10    11   1
    15    11    12   2
    16    11    21   1
    17    12    13   1
    18    13    14   2
    19    13    15   1
    20    15    16  ar
    21    16    17   1
    22    16    18  ar
    23    18    19  ar
    24    19    20   1
    25    21    22  ar
    26    21    27  ar
    27    22    23   1
    28    22    24  ar
    29    24    25  ar
    30    25    26  ar
    31    26    27  ar
    32     1    29   1
    33     1    30   1
    34     1    31   1
    35     2    32   1
    36     3    33   1
    37     3    34   1
    38     4    35   1
    39     4    36   1
    40     5    37   1
    41     6    38   1
    42     7    39   1
    43     7    40   1
    44    12    41   1
    45    17    42   1
    46    18    43   1
    47    20    44   1
    48    24    45   1
    49    25    46   1
    50    26    47   1
    51    27    48   1
    52    28    49   1
@<TRIPOS>SUBSTRUCTURE
     1  CPB      1

