@<TRIPOS>MOLECULE
3ebp_ligand_090
    49    52
SMALL
GAST_HUCK
****
This file was generated by PARSER (from files_GN.cpp)

@<TRIPOS>ATOM
      1 C1         47.6204   34.7477   25.0429 C.3         1 CPB      -0.0430
      2 N1         46.5387   35.7407   25.3049 N.4         1 CPB       0.2351
      3 C16        45.5889   35.8624   24.1551 C.3         1 CPB      -0.0305
      4 C15        44.5845   37.0222   24.3871 C.3         1 CPB      -0.0017
      5 C14        43.8104   36.8320   25.7267 C.3         1 CPB       0.0215
      6 C13        44.7947   36.6069   26.9219 C.3         1 CPB       0.1030
      7 C12        45.8299   35.4905   26.5991 C.3         1 CPB      -0.0040
      8 C8         42.7504   37.8763   25.9956 C.ar        1 CPB       0.0228
      9 C9         41.3984   37.4957   26.2574 C.ar        1 CPB       0.1322
     10 O1         41.0255   36.1564   26.1947 O.3         1 CPB      -0.2448
     11 C2         39.7981   35.7575   26.6175 C.2         1 CPB       0.1417
     12 C3         38.8486   36.6615   26.9318 C.2         1 CPB       0.0078
     13 C4         39.1217   37.9951   26.8988 C.2         1 CPB       0.0995
     14 O4         38.2256   38.7620   27.2113 O.2         1 CPB      -0.4249
     15 C10        40.4049   38.4679   26.5774 C.ar        1 CPB       0.0721
     16 C5         40.7563   39.8419   26.5792 C.ar        1 CPB       0.0869
     17 O5         39.8631   40.8317   26.8362 O.3         1 CPB      -0.3368
     18 C6         42.0739   40.2248   26.3009 C.ar        1 CPB      -0.0144
     19 C7         43.0602   39.2630   26.0287 C.ar        1 CPB       0.0802
     20 O7         44.3105   39.7380   25.7984 O.3         1 CPB      -0.3389
     21 C21        39.5251   34.3880   26.6056 C.ar        1 CPB       0.0440
     22 C22        39.1229   33.6573   27.7579 C.ar        1 CPB       0.0577
     23 CL1        38.9838   34.3660   29.2960 Cl          1 CPB      -0.0650
     24 C23        38.8599   32.2742   27.6672 C.ar        1 CPB      -0.0431
     25 C24        38.9923   31.6032   26.4409 C.ar        1 CPB      -0.0577
     26 C25        39.3705   32.3176   25.2923 C.ar        1 CPB      -0.0569
     27 C26        39.6380   33.6963   25.3767 C.ar        1 CPB      -0.0446
     28 O3         45.5000   37.7957   27.2672 O.3         1 CPB      -0.3849
     29 H1         48.1730   35.0190   24.1406 H           1 CPB       0.0778
     30 H2         47.2139   33.7422   24.9125 H           1 CPB       0.0778
     31 H3         48.3336   34.7313   25.8669 H           1 CPB       0.0778
     32 H4         47.0049   36.6442   25.4005 H           1 CPB       0.2031
     33 H5         45.0465   34.9230   24.0020 H           1 CPB       0.0816
     34 H6         46.1414   36.0772   23.2368 H           1 CPB       0.0816
     35 H7         43.8762   37.0502   23.5532 H           1 CPB       0.0335
     36 H8         45.1495   37.9543   24.3929 H           1 CPB       0.0335
     37 H9         43.3167   35.8688   25.6071 H           1 CPB       0.0427
     38 H10        44.2154   36.3005   27.8000 H           1 CPB       0.0665
     39 H11        46.5569   35.4516   27.4165 H           1 CPB       0.0841
     40 H12        45.3272   34.5225   26.5723 H           1 CPB       0.0841
     41 H13        37.9322   36.3553   27.1787 H           1 CPB       0.0418
     42 H14        39.8743   40.9337   27.8100 H           1 CPB       0.2482
     43 H15        42.3211   41.2208   26.3048 H           1 CPB       0.0388
     44 H16        44.2799   40.1235   24.8972 H           1 CPB       0.2468
     45 H17        38.5878   31.7350   28.4934 H           1 CPB       0.0633
     46 H18        38.7984   30.6027   26.3807 H           1 CPB       0.0647
     47 H19        39.4451   31.8349   24.3976 H           1 CPB       0.0629
     48 H20        39.8838   34.1928   24.5162 H           1 CPB       0.0661
     49 H21        46.0311   37.5675   28.0584 H           1 CPB       0.2102
@<TRIPOS>BOND
     1     1     2   1
     2     2     3   1
     3     2     7   1
     4     3     4   1
     5     4     5   1
     6     5     6   1
     7     5     8   1
     8     6     7   1
     9     6    28   1
    10     8     9  ar
    11     8    19  ar
    12     9    10   1
    13     9    15  ar
    14    10    11   1
    15    11    12   2
    16    11    21   1
    17    12    13   1
    18    13    14   2
    19    13    15   1
    20    15    16  ar
    21    16    17   1
    22    16    18  ar
    23    18    19  ar
    24    19    20   1
    25    21    22  ar
    26    21    27  ar
    27    22    23   1
    28    22    24  ar
    29    24    25  ar
    30    25    26  ar
    31    26    27  ar
    32     1    29   1
    33     1    30   1
    34     1    31   1
    35     2    32   1
    36     3    33   1
    37     3    34   1
    38     4    35   1
    39     4    36   1
    40     5    37   1
    41     6    38   1
    42     7    39   1
    43     7    40   1
    44    12    41   1
    45    17    42   1
    46    18    43   1
    47    20    44   1
    48    24    45   1
    49    25    46   1
    50    26    47   1
    51    27    48   1
    52    28    49   1
@<TRIPOS>SUBSTRUCTURE
     1  CPB      1

