@<TRIPOS>MOLECULE
3ebp_ligand_030
    49    52
SMALL
GAST_HUCK
****
This file was generated by PARSER (from files_GN.cpp)

@<TRIPOS>ATOM
      1 C1         44.2465   40.0068   34.0543 C.3         1 CPB      -0.0430
      2 N1         42.9216   39.4649   34.4771 N.4         1 CPB       0.2351
      3 C16        43.0010   38.0199   34.8580 C.3         1 CPB      -0.0305
      4 C15        41.5960   37.4385   35.1635 C.3         1 CPB      -0.0017
      5 C14        40.8685   38.2776   36.2587 C.3         1 CPB       0.0215
      6 C13        40.8493   39.7979   35.9039 C.3         1 CPB       0.1030
      7 C12        42.2745   40.3034   35.5389 C.3         1 CPB      -0.0040
      8 C8         39.5224   37.7244   36.6699 C.ar        1 CPB       0.0228
      9 C9         38.4745   37.4636   35.7355 C.ar        1 CPB       0.1322
     10 O1         38.6586   37.7434   34.3882 O.3         1 CPB      -0.2448
     11 C2         37.7104   37.4394   33.4640 C.2         1 CPB       0.1417
     12 C3         36.5284   36.9173   33.8497 C.2         1 CPB       0.0078
     13 C4         36.2603   36.6923   35.1656 C.2         1 CPB       0.0995
     14 O4         35.1353   36.3050   35.4525 O.2         1 CPB      -0.4249
     15 C10        37.2282   36.9147   36.1548 C.ar        1 CPB       0.0721
     16 C5         37.0279   36.6214   37.5277 C.ar        1 CPB       0.0869
     17 O5         35.8858   36.0686   38.0162 O.3         1 CPB      -0.3368
     18 C6         38.0420   36.8960   38.4564 C.ar        1 CPB      -0.0144
     19 C7         39.2669   37.4389   38.0402 C.ar        1 CPB       0.0802
     20 O7         40.1748   37.6702   39.0222 O.3         1 CPB      -0.3389
     21 C21        37.9893   37.7744   32.1312 C.ar        1 CPB       0.0440
     22 C22        37.9371   36.8441   31.0526 C.ar        1 CPB       0.0577
     23 CL1        37.6001   35.1945   31.2651 Cl          1 CPB      -0.0650
     24 C23        38.2412   37.2600   29.7369 C.ar        1 CPB      -0.0431
     25 C24        38.6028   38.5911   29.4724 C.ar        1 CPB      -0.0577
     26 C25        38.6646   39.5179   30.5234 C.ar        1 CPB      -0.0569
     27 C26        38.3643   39.1101   31.8359 C.ar        1 CPB      -0.0446
     28 O3         39.9787   40.0932   34.8149 O.3         1 CPB      -0.3849
     29 H1         44.6526   39.4179   33.2280 H           1 CPB       0.0778
     30 H2         44.9646   39.9914   34.8789 H           1 CPB       0.0778
     31 H3         44.1425   41.0351   33.7006 H           1 CPB       0.0778
     32 H4         42.3170   39.5171   33.6533 H           1 CPB       0.2031
     33 H5         43.6466   37.8923   35.7326 H           1 CPB       0.0816
     34 H6         43.4327   37.4408   34.0383 H           1 CPB       0.0816
     35 H7         41.7046   36.4041   35.5052 H           1 CPB       0.0335
     36 H8         41.0262   37.4241   34.2342 H           1 CPB       0.0335
     37 H9         41.5414   38.2118   37.1194 H           1 CPB       0.0427
     38 H10        40.4941   40.3517   36.7788 H           1 CPB       0.0665
     39 H11        42.1905   41.3376   35.1893 H           1 CPB       0.0841
     40 H12        42.8959   40.3103   36.4397 H           1 CPB       0.0841
     41 H13        35.8159   36.7444   33.1751 H           1 CPB       0.0418
     42 H14        35.8404   35.1708   37.6164 H           1 CPB       0.2482
     43 H15        37.8886   36.6922   39.4498 H           1 CPB       0.0388
     44 H16        39.9528   38.5635   39.3601 H           1 CPB       0.2468
     45 H17        38.2036   36.5954   28.9587 H           1 CPB       0.0633
     46 H18        38.8169   38.8866   28.5160 H           1 CPB       0.0647
     47 H19        38.9176   40.4903   30.3319 H           1 CPB       0.0629
     48 H20        38.4086   39.8165   32.5727 H           1 CPB       0.0661
     49 H21        39.7859   41.0548   34.8826 H           1 CPB       0.2102
@<TRIPOS>BOND
     1     1     2   1
     2     2     3   1
     3     2     7   1
     4     3     4   1
     5     4     5   1
     6     5     6   1
     7     5     8   1
     8     6     7   1
     9     6    28   1
    10     8     9  ar
    11     8    19  ar
    12     9    10   1
    13     9    15  ar
    14    10    11   1
    15    11    12   2
    16    11    21   1
    17    12    13   1
    18    13    14   2
    19    13    15   1
    20    15    16  ar
    21    16    17   1
    22    16    18  ar
    23    18    19  ar
    24    19    20   1
    25    21    22  ar
    26    21    27  ar
    27    22    23   1
    28    22    24  ar
    29    24    25  ar
    30    25    26  ar
    31    26    27  ar
    32     1    29   1
    33     1    30   1
    34     1    31   1
    35     2    32   1
    36     3    33   1
    37     3    34   1
    38     4    35   1
    39     4    36   1
    40     5    37   1
    41     6    38   1
    42     7    39   1
    43     7    40   1
    44    12    41   1
    45    17    42   1
    46    18    43   1
    47    20    44   1
    48    24    45   1
    49    25    46   1
    50    26    47   1
    51    27    48   1
    52    28    49   1
@<TRIPOS>SUBSTRUCTURE
     1  CPB      1

