@<TRIPOS>MOLECULE
3ebp_ligand_091
    49    52
SMALL
GAST_HUCK
****
This file was generated by PARSER (from files_GN.cpp)

@<TRIPOS>ATOM
      1 C1         38.7828   44.5066   26.2670 C.3         1 CPB      -0.0430
      2 N1         39.2272   43.0958   26.4385 N.4         1 CPB       0.2351
      3 C16        40.0913   42.9146   27.6472 C.3         1 CPB      -0.0305
      4 C15        40.6660   41.4762   27.7109 C.3         1 CPB      -0.0017
      5 C14        39.5296   40.4071   27.6369 C.3         1 CPB       0.0215
      6 C13        38.5650   40.6626   26.4318 C.3         1 CPB       0.1030
      7 C12        38.0766   42.1352   26.4095 C.3         1 CPB      -0.0040
      8 C8         40.0098   38.9743   27.7340 C.ar        1 CPB       0.0228
      9 C9         41.0019   38.4353   26.8690 C.ar        1 CPB       0.1322
     10 O1         41.5529   39.2386   25.8918 O.3         1 CPB      -0.2448
     11 C2         42.4660   38.7508   25.0318 C.2         1 CPB       0.1417
     12 C3         42.9237   37.4872   25.1197 C.2         1 CPB       0.0078
     13 C4         42.4445   36.6595   26.0888 C.2         1 CPB       0.0995
     14 O4         42.9165   35.5298   26.1480 O.2         1 CPB      -0.4249
     15 C10        41.4535   37.0868   26.9844 C.ar        1 CPB       0.0721
     16 C5         40.8790   36.2643   27.9828 C.ar        1 CPB       0.0869
     17 O5         41.2449   34.9713   28.1564 O.3         1 CPB      -0.3368
     18 C6         39.8808   36.7711   28.8282 C.ar        1 CPB      -0.0144
     19 C7         39.4510   38.1033   28.7096 C.ar        1 CPB       0.0802
     20 O7         38.4692   38.4991   29.5590 O.3         1 CPB      -0.3389
     21 C21        42.8767   39.6115   24.0300 C.ar        1 CPB       0.0440
     22 C22        42.0750   39.8806   22.8869 C.ar        1 CPB       0.0577
     23 CL1        40.5718   39.1379   22.6192 Cl          1 CPB      -0.0650
     24 C23        42.5570   40.7562   21.8890 C.ar        1 CPB      -0.0431
     25 C24        43.8168   41.3647   22.0231 C.ar        1 CPB      -0.0577
     26 C25        44.6134   41.0927   23.1468 C.ar        1 CPB      -0.0569
     27 C26        44.1481   40.2167   24.1419 C.ar        1 CPB      -0.0446
     28 O3         39.1446   40.3777   25.1623 O.3         1 CPB      -0.3849
     29 H1         39.6474   45.1709   26.2075 H           1 CPB       0.0778
     30 H2         38.1498   44.8288   27.0976 H           1 CPB       0.0778
     31 H3         38.2233   44.6167   25.3369 H           1 CPB       0.0778
     32 H4         39.8114   42.8771   25.6278 H           1 CPB       0.2031
     33 H5         39.5218   43.1191   28.5594 H           1 CPB       0.0816
     34 H6         40.9337   43.6136   27.6130 H           1 CPB       0.0816
     35 H7         41.2215   41.3526   28.6456 H           1 CPB       0.0335
     36 H8         41.3714   41.3730   26.8870 H           1 CPB       0.0335
     37 H9         38.9196   40.6171   28.5216 H           1 CPB       0.0427
     38 H10        37.6924   40.0108   26.5373 H           1 CPB       0.0665
     39 H11        37.4879   42.2842   25.4996 H           1 CPB       0.0841
     40 H12        37.4128   42.3081   27.2612 H           1 CPB       0.0841
     41 H13        43.5846   37.1456   24.4542 H           1 CPB       0.0418
     42 H14        42.0814   35.0171   28.6657 H           1 CPB       0.2482
     43 H15        39.4620   36.1616   29.5377 H           1 CPB       0.0388
     44 H16        38.9436   38.9575   30.2839 H           1 CPB       0.2468
     45 H17        41.9958   40.9475   21.0565 H           1 CPB       0.0633
     46 H18        44.1530   42.0043   21.3004 H           1 CPB       0.0647
     47 H19        45.5341   41.5282   23.2381 H           1 CPB       0.0629
     48 H20        44.7457   40.0278   24.9522 H           1 CPB       0.0661
     49 H21        38.3906   40.1165   24.5879 H           1 CPB       0.2102
@<TRIPOS>BOND
     1     1     2   1
     2     2     3   1
     3     2     7   1
     4     3     4   1
     5     4     5   1
     6     5     6   1
     7     5     8   1
     8     6     7   1
     9     6    28   1
    10     8     9  ar
    11     8    19  ar
    12     9    10   1
    13     9    15  ar
    14    10    11   1
    15    11    12   2
    16    11    21   1
    17    12    13   1
    18    13    14   2
    19    13    15   1
    20    15    16  ar
    21    16    17   1
    22    16    18  ar
    23    18    19  ar
    24    19    20   1
    25    21    22  ar
    26    21    27  ar
    27    22    23   1
    28    22    24  ar
    29    24    25  ar
    30    25    26  ar
    31    26    27  ar
    32     1    29   1
    33     1    30   1
    34     1    31   1
    35     2    32   1
    36     3    33   1
    37     3    34   1
    38     4    35   1
    39     4    36   1
    40     5    37   1
    41     6    38   1
    42     7    39   1
    43     7    40   1
    44    12    41   1
    45    17    42   1
    46    18    43   1
    47    20    44   1
    48    24    45   1
    49    25    46   1
    50    26    47   1
    51    27    48   1
    52    28    49   1
@<TRIPOS>SUBSTRUCTURE
     1  CPB      1

