@<TRIPOS>MOLECULE
3ebp_ligand_051
    49    52
SMALL
GAST_HUCK
****
This file was generated by PARSER (from files_GN.cpp)

@<TRIPOS>ATOM
      1 C1         41.8732   40.0674   21.9804 C.3         1 CPB      -0.0430
      2 N1         41.4033   39.9899   23.3922 N.4         1 CPB       0.2351
      3 C16        39.9683   40.3910   23.5384 C.3         1 CPB      -0.0305
      4 C15        39.5826   40.4758   25.0375 C.3         1 CPB      -0.0017
      5 C14        39.8820   39.1466   25.8046 C.3         1 CPB       0.0215
      6 C13        41.3451   38.6725   25.5448 C.3         1 CPB       0.1030
      7 C12        41.6710   38.6608   24.0236 C.3         1 CPB      -0.0040
      8 C8         39.5246   39.1069   27.2753 C.ar        1 CPB       0.0228
      9 C9         38.9718   37.9161   27.8336 C.ar        1 CPB       0.1322
     10 O1         38.8510   36.7778   27.0458 O.3         1 CPB      -0.2448
     11 C2         38.2488   35.6529   27.5178 C.2         1 CPB       0.1417
     12 C3         37.7903   35.6139   28.7842 C.2         1 CPB       0.0078
     13 C4         37.9996   36.6488   29.6410 C.2         1 CPB       0.0995
     14 O4         37.6571   36.4971   30.8074 O.2         1 CPB      -0.4249
     15 C10        38.5784   37.8465   29.2002 C.ar        1 CPB       0.0721
     16 C5         38.7803   38.9742   30.0317 C.ar        1 CPB       0.0869
     17 O5         38.4258   38.9866   31.3428 O.3         1 CPB      -0.3368
     18 C6         39.3761   40.1315   29.5111 C.ar        1 CPB      -0.0144
     19 C7         39.7597   40.1970   28.1624 C.ar        1 CPB       0.0802
     20 O7         40.3722   41.3432   27.7849 O.3         1 CPB      -0.3389
     21 C21        38.0610   34.6013   26.6045 C.ar        1 CPB       0.0440
     22 C22        38.2318   33.2171   26.9223 C.ar        1 CPB       0.0577
     23 CL1        38.8777   32.6530   28.3909 Cl          1 CPB      -0.0650
     24 C23        37.9516   32.2249   25.9612 C.ar        1 CPB      -0.0431
     25 C24        37.5369   32.5762   24.6669 C.ar        1 CPB      -0.0577
     26 C25        37.4135   33.9288   24.3223 C.ar        1 CPB      -0.0569
     27 C26        37.6819   34.9260   25.2748 C.ar        1 CPB      -0.0446
     28 O3         42.2897   39.5088   26.2172 O.3         1 CPB      -0.3849
     29 H1         41.7770   41.0910   21.6140 H           1 CPB       0.0778
     30 H2         41.2951   39.4047   21.3320 H           1 CPB       0.0778
     31 H3         42.9287   39.7955   21.9120 H           1 CPB       0.0778
     32 H4         41.9578   40.6721   23.9137 H           1 CPB       0.2031
     33 H5         39.3091   39.6844   23.0204 H           1 CPB       0.0816
     34 H6         39.8141   41.3799   23.0941 H           1 CPB       0.0816
     35 H7         38.5211   40.7222   25.1231 H           1 CPB       0.0335
     36 H8         40.1579   41.3049   25.4418 H           1 CPB       0.0335
     37 H9         39.2449   38.4183   25.2993 H           1 CPB       0.0427
     38 H10        41.4701   37.6521   25.9235 H           1 CPB       0.0665
     39 H11        42.7246   38.3887   23.9015 H           1 CPB       0.0841
     40 H12        41.0684   37.8932   23.5288 H           1 CPB       0.0841
     41 H13        37.2451   34.8375   29.0914 H           1 CPB       0.0418
     42 H14        39.2562   38.7888   31.8255 H           1 CPB       0.2482
     43 H15        39.5365   40.9309   30.1269 H           1 CPB       0.0388
     44 H16        41.2946   41.2599   28.1108 H           1 CPB       0.2468
     45 H17        38.0604   31.2328   26.1882 H           1 CPB       0.0633
     46 H18        37.3422   31.8505   23.9748 H           1 CPB       0.0647
     47 H19        37.1192   34.1873   23.3802 H           1 CPB       0.0629
     48 H20        37.5658   35.9029   24.9846 H           1 CPB       0.0661
     49 H21        42.1485   39.3413   27.1731 H           1 CPB       0.2102
@<TRIPOS>BOND
     1     1     2   1
     2     2     3   1
     3     2     7   1
     4     3     4   1
     5     4     5   1
     6     5     6   1
     7     5     8   1
     8     6     7   1
     9     6    28   1
    10     8     9  ar
    11     8    19  ar
    12     9    10   1
    13     9    15  ar
    14    10    11   1
    15    11    12   2
    16    11    21   1
    17    12    13   1
    18    13    14   2
    19    13    15   1
    20    15    16  ar
    21    16    17   1
    22    16    18  ar
    23    18    19  ar
    24    19    20   1
    25    21    22  ar
    26    21    27  ar
    27    22    23   1
    28    22    24  ar
    29    24    25  ar
    30    25    26  ar
    31    26    27  ar
    32     1    29   1
    33     1    30   1
    34     1    31   1
    35     2    32   1
    36     3    33   1
    37     3    34   1
    38     4    35   1
    39     4    36   1
    40     5    37   1
    41     6    38   1
    42     7    39   1
    43     7    40   1
    44    12    41   1
    45    17    42   1
    46    18    43   1
    47    20    44   1
    48    24    45   1
    49    25    46   1
    50    26    47   1
    51    27    48   1
    52    28    49   1
@<TRIPOS>SUBSTRUCTURE
     1  CPB      1

