@<TRIPOS>MOLECULE
3ebp_ligand_001
    49    52
SMALL
GAST_HUCK
****
This file was generated by PARSER (from files_GN.cpp)

@<TRIPOS>ATOM
      1 C1         39.7417   43.8235   30.5508 C.3         1 CPB      -0.0430
      2 N1         39.4145   42.5375   29.8745 N.4         1 CPB       0.2351
      3 C16        40.6304   41.8207   29.3884 C.3         1 CPB      -0.0305
      4 C15        40.2172   40.5832   28.5516 C.3         1 CPB      -0.0017
      5 C14        39.3113   39.5960   29.3533 C.3         1 CPB       0.0215
      6 C13        38.0795   40.3987   29.9046 C.3         1 CPB       0.1030
      7 C12        38.5400   41.6519   30.7038 C.3         1 CPB      -0.0040
      8 C8         38.9151   38.2904   28.6858 C.ar        1 CPB       0.0228
      9 C9         38.3970   37.2360   29.4915 C.ar        1 CPB       0.1322
     10 O1         38.2503   37.4325   30.8555 O.3         1 CPB      -0.2448
     11 C2         37.7275   36.4766   31.6624 C.2         1 CPB       0.1417
     12 C3         37.4194   35.2653   31.1566 C.2         1 CPB       0.0078
     13 C4         37.5498   35.0016   29.8274 C.2         1 CPB       0.0995
     14 O4         37.1967   33.8949   29.4354 O.2         1 CPB      -0.4249
     15 C10        38.0391   35.9704   28.9395 C.ar        1 CPB       0.0721
     16 C5         38.2132   35.7547   27.5520 C.ar        1 CPB       0.0869
     17 O5         37.9232   34.5732   26.9524 O.3         1 CPB      -0.3368
     18 C6         38.7143   36.7811   26.7415 C.ar        1 CPB      -0.0144
     19 C7         39.0505   38.0292   27.2929 C.ar        1 CPB       0.0802
     20 O7         39.4891   38.9447   26.3978 O.3         1 CPB      -0.3389
     21 C21        37.5431   36.7957   33.0179 C.ar        1 CPB       0.0440
     22 C22        38.4983   37.5497   33.7607 C.ar        1 CPB       0.0577
     23 CL1        39.9818   38.0875   33.1253 Cl          1 CPB      -0.0650
     24 C23        38.2752   37.8320   35.1285 C.ar        1 CPB      -0.0431
     25 C24        37.1188   37.3778   35.7767 C.ar        1 CPB      -0.0577
     26 C25        36.1600   36.6463   35.0578 C.ar        1 CPB      -0.0569
     27 C26        36.3682   36.3705   33.6962 C.ar        1 CPB      -0.0446
     28 O3         37.2127   40.8386   28.8523 O.3         1 CPB      -0.3849
     29 H1         40.2952   44.4744   29.8723 H           1 CPB       0.0778
     30 H2         40.3416   43.6572   31.4479 H           1 CPB       0.0778
     31 H3         38.8253   44.3442   30.8305 H           1 CPB       0.0778
     32 H4         38.8755   42.7800   29.0383 H           1 CPB       0.2031
     33 H5         41.2603   41.5125   30.2303 H           1 CPB       0.0816
     34 H6         41.2202   42.4865   28.7480 H           1 CPB       0.0816
     35 H7         41.1178   40.0768   28.1991 H           1 CPB       0.0335
     36 H8         39.6647   40.9647   27.6942 H           1 CPB       0.0335
     37 H9         39.9227   39.3063   30.2143 H           1 CPB       0.0427
     38 H10        37.4850   39.7814   30.5843 H           1 CPB       0.0665
     39 H11        37.6556   42.2099   31.0175 H           1 CPB       0.0841
     40 H12        39.0702   41.3322   31.6065 H           1 CPB       0.0841
     41 H13        37.1061   34.5371   31.7584 H           1 CPB       0.0418
     42 H14        38.7392   34.0409   27.0626 H           1 CPB       0.2482
     43 H15        38.8403   36.6207   25.7388 H           1 CPB       0.0388
     44 H16        38.7409   39.0577   25.7703 H           1 CPB       0.2468
     45 H17        38.9670   38.3658   35.6664 H           1 CPB       0.0633
     46 H18        36.9681   37.5830   36.7662 H           1 CPB       0.0647
     47 H19        35.3122   36.3194   35.5249 H           1 CPB       0.0629
     48 H20        35.6342   35.8565   33.1999 H           1 CPB       0.0661
     49 H21        37.4693   40.3305   28.0523 H           1 CPB       0.2102
@<TRIPOS>BOND
     1     1     2   1
     2     2     3   1
     3     2     7   1
     4     3     4   1
     5     4     5   1
     6     5     6   1
     7     5     8   1
     8     6     7   1
     9     6    28   1
    10     8     9  ar
    11     8    19  ar
    12     9    10   1
    13     9    15  ar
    14    10    11   1
    15    11    12   2
    16    11    21   1
    17    12    13   1
    18    13    14   2
    19    13    15   1
    20    15    16  ar
    21    16    17   1
    22    16    18  ar
    23    18    19  ar
    24    19    20   1
    25    21    22  ar
    26    21    27  ar
    27    22    23   1
    28    22    24  ar
    29    24    25  ar
    30    25    26  ar
    31    26    27  ar
    32     1    29   1
    33     1    30   1
    34     1    31   1
    35     2    32   1
    36     3    33   1
    37     3    34   1
    38     4    35   1
    39     4    36   1
    40     5    37   1
    41     6    38   1
    42     7    39   1
    43     7    40   1
    44    12    41   1
    45    17    42   1
    46    18    43   1
    47    20    44   1
    48    24    45   1
    49    25    46   1
    50    26    47   1
    51    27    48   1
    52    28    49   1
@<TRIPOS>SUBSTRUCTURE
     1  CPB      1

