@<TRIPOS>MOLECULE
3ebp_ligand_060
    49    52
SMALL
GAST_HUCK
****
This file was generated by PARSER (from files_GN.cpp)

@<TRIPOS>ATOM
      1 C1         45.5406   34.8007   30.8569 C.3         1 CPB      -0.0430
      2 N1         44.7001   35.8527   30.2151 N.4         1 CPB       0.2351
      3 C16        43.7626   35.2854   29.2002 C.3         1 CPB      -0.0305
      4 C15        43.0490   36.4325   28.4354 C.3         1 CPB      -0.0017
      5 C14        42.2897   37.3934   29.4107 C.3         1 CPB       0.0215
      6 C13        43.2577   37.9060   30.5257 C.3         1 CPB       0.1030
      7 C12        44.0021   36.7249   31.2131 C.3         1 CPB      -0.0040
      8 C8         41.4802   38.5238   28.8140 C.ar        1 CPB       0.0228
      9 C9         40.2050   38.8480   29.3641 C.ar        1 CPB       0.1322
     10 O1         39.6976   38.0788   30.4023 O.3         1 CPB      -0.2448
     11 C2         38.5592   38.4543   31.0357 C.2         1 CPB       0.1417
     12 C3         37.8344   39.5121   30.6195 C.2         1 CPB       0.0078
     13 C4         38.2129   40.2141   29.5232 C.2         1 CPB       0.0995
     14 O4         37.4256   41.0531   29.0930 O.2         1 CPB      -0.4249
     15 C10        39.4297   39.9413   28.8670 C.ar        1 CPB       0.0721
     16 C5         39.9213   40.6894   27.7751 C.ar        1 CPB       0.0869
     17 O5         39.2509   41.7459   27.2474 O.3         1 CPB      -0.3368
     18 C6         41.1739   40.3837   27.2303 C.ar        1 CPB      -0.0144
     19 C7         41.9601   39.3428   27.7568 C.ar        1 CPB       0.0802
     20 O7         43.1763   39.2118   27.1802 O.3         1 CPB      -0.3389
     21 C21        38.0951   37.6346   32.0554 C.ar        1 CPB       0.0440
     22 C22        37.6103   36.3225   31.7976 C.ar        1 CPB       0.0577
     23 CL1        37.5864   35.6470   30.2345 Cl          1 CPB      -0.0650
     24 C23        37.0764   35.5532   32.8497 C.ar        1 CPB      -0.0431
     25 C24        37.0378   36.0609   34.1576 C.ar        1 CPB      -0.0577
     26 C25        37.5361   37.3471   34.4271 C.ar        1 CPB      -0.0569
     27 C26        38.0657   38.1297   33.3832 C.ar        1 CPB      -0.0446
     28 O3         44.2260   38.8215   30.0063 O.3         1 CPB      -0.3849
     29 H1         46.0976   34.2476   30.0965 H           1 CPB       0.0778
     30 H2         44.9339   34.0938   31.4290 H           1 CPB       0.0778
     31 H3         46.2698   35.2605   31.5270 H           1 CPB       0.0778
     32 H4         45.3452   36.4579   29.6981 H           1 CPB       0.2031
     33 H5         43.0214   34.6370   29.6817 H           1 CPB       0.0816
     34 H6         44.3244   34.6906   28.4734 H           1 CPB       0.0816
     35 H7         42.3495   36.0023   27.7104 H           1 CPB       0.0335
     36 H8         43.8350   36.9539   27.8922 H           1 CPB       0.0335
     37 H9         41.5774   36.7253   29.9092 H           1 CPB       0.0427
     38 H10        42.6885   38.4372   31.2904 H           1 CPB       0.0665
     39 H11        44.7345   37.1385   31.9134 H           1 CPB       0.0841
     40 H12        43.2887   36.1377   31.7943 H           1 CPB       0.0841
     41 H13        36.9834   39.7451   31.0776 H           1 CPB       0.0418
     42 H14        39.2962   42.4443   27.9388 H           1 CPB       0.2482
     43 H15        41.5370   40.9495   26.4602 H           1 CPB       0.0388
     44 H16        43.7963   39.6687   27.7830 H           1 CPB       0.2468
     45 H17        36.6961   34.6224   32.6663 H           1 CPB       0.0633
     46 H18        36.6320   35.5064   34.9112 H           1 CPB       0.0647
     47 H19        37.4986   37.7239   35.3739 H           1 CPB       0.0629
     48 H20        38.4036   39.0727   33.5934 H           1 CPB       0.0661
     49 H21        43.8421   39.7167   30.1375 H           1 CPB       0.2102
@<TRIPOS>BOND
     1     1     2   1
     2     2     3   1
     3     2     7   1
     4     3     4   1
     5     4     5   1
     6     5     6   1
     7     5     8   1
     8     6     7   1
     9     6    28   1
    10     8     9  ar
    11     8    19  ar
    12     9    10   1
    13     9    15  ar
    14    10    11   1
    15    11    12   2
    16    11    21   1
    17    12    13   1
    18    13    14   2
    19    13    15   1
    20    15    16  ar
    21    16    17   1
    22    16    18  ar
    23    18    19  ar
    24    19    20   1
    25    21    22  ar
    26    21    27  ar
    27    22    23   1
    28    22    24  ar
    29    24    25  ar
    30    25    26  ar
    31    26    27  ar
    32     1    29   1
    33     1    30   1
    34     1    31   1
    35     2    32   1
    36     3    33   1
    37     3    34   1
    38     4    35   1
    39     4    36   1
    40     5    37   1
    41     6    38   1
    42     7    39   1
    43     7    40   1
    44    12    41   1
    45    17    42   1
    46    18    43   1
    47    20    44   1
    48    24    45   1
    49    25    46   1
    50    26    47   1
    51    27    48   1
    52    28    49   1
@<TRIPOS>SUBSTRUCTURE
     1  CPB      1

