@<TRIPOS>MOLECULE
3ebp_ligand_072
    49    52
SMALL
GAST_HUCK
****
This file was generated by PARSER (from files_GN.cpp)

@<TRIPOS>ATOM
      1 C1         37.4805   36.6488   38.5120 C.3         1 CPB      -0.0430
      2 N1         38.2549   37.2425   37.3824 N.4         1 CPB       0.2351
      3 C16        39.5472   36.5313   37.1272 C.3         1 CPB      -0.0305
      4 C15        40.3737   37.2780   36.0457 C.3         1 CPB      -0.0017
      5 C14        39.5661   37.4716   34.7199 C.3         1 CPB       0.0215
      6 C13        38.1941   38.1393   35.0247 C.3         1 CPB       0.1030
      7 C12        37.4345   37.3669   36.1410 C.3         1 CPB      -0.0040
      8 C8         40.2581   38.1122   33.5326 C.ar        1 CPB       0.0228
      9 C9         39.9291   37.7000   32.2094 C.ar        1 CPB       0.1322
     10 O1         38.9954   36.6879   32.0331 O.3         1 CPB      -0.2448
     11 C2         38.6220   36.2807   30.7932 C.2         1 CPB       0.1417
     12 C3         39.1039   36.9056   29.6951 C.2         1 CPB       0.0078
     13 C4         40.0590   37.8669   29.8033 C.2         1 CPB       0.0995
     14 O4         40.4913   38.3444   28.7621 O.2         1 CPB      -0.4249
     15 C10        40.5058   38.3099   31.0572 C.ar        1 CPB       0.0721
     16 C5         41.4725   39.3280   31.2366 C.ar        1 CPB       0.0869
     17 O5         42.0882   39.9512   30.1996 O.3         1 CPB      -0.3368
     18 C6         41.8049   39.7516   32.5295 C.ar        1 CPB      -0.0144
     19 C7         41.1842   39.1841   33.6612 C.ar        1 CPB       0.0802
     20 O7         41.5110   39.7434   34.8443 O.3         1 CPB      -0.3389
     21 C21        37.6768   35.2587   30.7218 C.ar        1 CPB       0.0440
     22 C22        37.7709   34.1413   29.8404 C.ar        1 CPB       0.0577
     23 CL1        39.1121   33.8499   28.8307 Cl          1 CPB      -0.0650
     24 C23        36.7606   33.1614   29.8240 C.ar        1 CPB      -0.0431
     25 C24        35.6598   33.2545   30.6914 C.ar        1 CPB      -0.0577
     26 C25        35.5685   34.3278   31.5898 C.ar        1 CPB      -0.0569
     27 C26        36.5652   35.3171   31.6056 C.ar        1 CPB      -0.0446
     28 O3         38.3625   39.5008   35.4282 O.3         1 CPB      -0.3849
     29 H1         38.0712   36.6762   39.4309 H           1 CPB       0.0778
     30 H2         37.2015   35.6143   38.3020 H           1 CPB       0.0778
     31 H3         36.5731   37.2250   38.6958 H           1 CPB       0.0778
     32 H4         38.4971   38.1923   37.6731 H           1 CPB       0.2031
     33 H5         39.3655   35.4980   36.8158 H           1 CPB       0.0816
     34 H6         40.1398   36.5075   38.0471 H           1 CPB       0.0816
     35 H7         41.2956   36.7216   35.8408 H           1 CPB       0.0335
     36 H8         40.6448   38.2414   36.4827 H           1 CPB       0.0335
     37 H9         39.3274   36.4494   34.4243 H           1 CPB       0.0427
     38 H10        37.5702   38.1320   34.1267 H           1 CPB       0.0665
     39 H11        36.5073   37.8982   36.3614 H           1 CPB       0.0841
     40 H12        37.1606   36.3725   35.7696 H           1 CPB       0.0841
     41 H13        38.7425   36.6761   28.7949 H           1 CPB       0.0418
     42 H14        41.4082   40.5418   29.8169 H           1 CPB       0.2482
     43 H15        42.4861   40.5058   32.6451 H           1 CPB       0.0388
     44 H16        42.2923   39.2430   35.1503 H           1 CPB       0.2468
     45 H17        36.8271   32.3572   29.1928 H           1 CPB       0.0633
     46 H18        34.9342   32.5368   30.6795 H           1 CPB       0.0647
     47 H19        34.7746   34.3905   32.2268 H           1 CPB       0.0629
     48 H20        36.4554   36.1008   32.2587 H           1 CPB       0.0661
     49 H21        38.6548   39.9733   34.6178 H           1 CPB       0.2102
@<TRIPOS>BOND
     1     1     2   1
     2     2     3   1
     3     2     7   1
     4     3     4   1
     5     4     5   1
     6     5     6   1
     7     5     8   1
     8     6     7   1
     9     6    28   1
    10     8     9  ar
    11     8    19  ar
    12     9    10   1
    13     9    15  ar
    14    10    11   1
    15    11    12   2
    16    11    21   1
    17    12    13   1
    18    13    14   2
    19    13    15   1
    20    15    16  ar
    21    16    17   1
    22    16    18  ar
    23    18    19  ar
    24    19    20   1
    25    21    22  ar
    26    21    27  ar
    27    22    23   1
    28    22    24  ar
    29    24    25  ar
    30    25    26  ar
    31    26    27  ar
    32     1    29   1
    33     1    30   1
    34     1    31   1
    35     2    32   1
    36     3    33   1
    37     3    34   1
    38     4    35   1
    39     4    36   1
    40     5    37   1
    41     6    38   1
    42     7    39   1
    43     7    40   1
    44    12    41   1
    45    17    42   1
    46    18    43   1
    47    20    44   1
    48    24    45   1
    49    25    46   1
    50    26    47   1
    51    27    48   1
    52    28    49   1
@<TRIPOS>SUBSTRUCTURE
     1  CPB      1

