@<TRIPOS>MOLECULE
3ebp_ligand_059
    49    52
SMALL
GAST_HUCK
****
This file was generated by PARSER (from files_GN.cpp)

@<TRIPOS>ATOM
      1 C1         38.2675   31.8885   23.7770 C.3         1 CPB      -0.0430
      2 N1         38.3487   32.7239   25.0018 N.4         1 CPB       0.2351
      3 C16        39.5094   33.6682   24.9829 C.3         1 CPB      -0.0305
      4 C15        39.6690   34.3653   26.3568 C.3         1 CPB      -0.0017
      5 C14        38.3504   35.0682   26.7800 C.3         1 CPB       0.0215
      6 C13        37.1323   34.0835   26.6988 C.3         1 CPB       0.1030
      7 C12        37.0574   33.4162   25.3036 C.3         1 CPB      -0.0040
      8 C8         38.5193   35.8226   28.0746 C.ar        1 CPB       0.0228
      9 C9         38.7057   37.2373   28.0740 C.ar        1 CPB       0.1322
     10 O1         38.9253   37.8965   26.8730 O.3         1 CPB      -0.2448
     11 C2         39.0811   39.2472   26.8346 C.2         1 CPB       0.1417
     12 C3         39.0995   39.9664   27.9771 C.2         1 CPB       0.0078
     13 C4         38.9530   39.3623   29.1878 C.2         1 CPB       0.0995
     14 O4         39.0289   40.0715   30.1820 O.2         1 CPB      -0.4249
     15 C10        38.7743   37.9760   29.2894 C.ar        1 CPB       0.0721
     16 C5         38.6900   37.2815   30.5208 C.ar        1 CPB       0.0869
     17 O5         38.7408   37.9037   31.7243 O.3         1 CPB      -0.3368
     18 C6         38.6113   35.8854   30.5326 C.ar        1 CPB      -0.0144
     19 C7         38.5573   35.1647   29.3340 C.ar        1 CPB       0.0802
     20 O7         38.6189   33.8242   29.4935 O.3         1 CPB      -0.3389
     21 C21        39.2835   39.8474   25.5819 C.ar        1 CPB       0.0440
     22 C22        40.1961   39.3246   24.6228 C.ar        1 CPB       0.0577
     23 CL1        41.1861   37.9703   24.9080 Cl          1 CPB      -0.0650
     24 C23        40.3632   39.9656   23.3776 C.ar        1 CPB      -0.0431
     25 C24        39.6286   41.1211   23.0630 C.ar        1 CPB      -0.0577
     26 C25        38.7209   41.6470   23.9955 C.ar        1 CPB      -0.0569
     27 C26        38.5473   41.0120   25.2383 C.ar        1 CPB      -0.0446
     28 O3         37.1782   33.0091   27.6252 O.3         1 CPB      -0.3849
     29 H1         39.2273   31.4103   23.5735 H           1 CPB       0.0778
     30 H2         37.9785   32.4856   22.9116 H           1 CPB       0.0778
     31 H3         37.5287   31.0991   23.9153 H           1 CPB       0.0778
     32 H4         38.5197   32.0766   25.7754 H           1 CPB       0.2031
     33 H5         39.3832   34.4220   24.1981 H           1 CPB       0.0816
     34 H6         40.4321   33.1208   24.7761 H           1 CPB       0.0816
     35 H7         40.4798   35.0979   26.2977 H           1 CPB       0.0335
     36 H8         39.9437   33.6136   27.0985 H           1 CPB       0.0335
     37 H9         38.1395   35.7967   25.9913 H           1 CPB       0.0427
     38 H10        36.2121   34.6267   26.8959 H           1 CPB       0.0665
     39 H11        36.2352   32.6927   25.3082 H           1 CPB       0.0841
     40 H12        36.8316   34.1684   24.5458 H           1 CPB       0.0841
     41 H13        39.2763   40.9479   27.9463 H           1 CPB       0.0418
     42 H14        37.8422   38.2762   31.8493 H           1 CPB       0.2482
     43 H15        38.6089   35.3823   31.4250 H           1 CPB       0.0388
     44 H16        37.7408   33.5714   29.8556 H           1 CPB       0.2468
     45 H17        41.0260   39.6010   22.6873 H           1 CPB       0.0633
     46 H18        39.7503   41.5762   22.1572 H           1 CPB       0.0647
     47 H19        38.1795   42.4824   23.7663 H           1 CPB       0.0629
     48 H20        37.8584   41.4057   25.8853 H           1 CPB       0.0661
     49 H21        36.2729   32.6370   27.6341 H           1 CPB       0.2102
@<TRIPOS>BOND
     1     1     2   1
     2     2     3   1
     3     2     7   1
     4     3     4   1
     5     4     5   1
     6     5     6   1
     7     5     8   1
     8     6     7   1
     9     6    28   1
    10     8     9  ar
    11     8    19  ar
    12     9    10   1
    13     9    15  ar
    14    10    11   1
    15    11    12   2
    16    11    21   1
    17    12    13   1
    18    13    14   2
    19    13    15   1
    20    15    16  ar
    21    16    17   1
    22    16    18  ar
    23    18    19  ar
    24    19    20   1
    25    21    22  ar
    26    21    27  ar
    27    22    23   1
    28    22    24  ar
    29    24    25  ar
    30    25    26  ar
    31    26    27  ar
    32     1    29   1
    33     1    30   1
    34     1    31   1
    35     2    32   1
    36     3    33   1
    37     3    34   1
    38     4    35   1
    39     4    36   1
    40     5    37   1
    41     6    38   1
    42     7    39   1
    43     7    40   1
    44    12    41   1
    45    17    42   1
    46    18    43   1
    47    20    44   1
    48    24    45   1
    49    25    46   1
    50    26    47   1
    51    27    48   1
    52    28    49   1
@<TRIPOS>SUBSTRUCTURE
     1  CPB      1

