@<TRIPOS>MOLECULE
3ebp_ligand_003
    49    52
SMALL
GAST_HUCK
****
This file was generated by PARSER (from files_GN.cpp)

@<TRIPOS>ATOM
      1 C1         45.6807   35.5332   28.6047 C.3         1 CPB      -0.0430
      2 N1         44.7479   36.0475   27.5625 N.4         1 CPB       0.2351
      3 C16        43.5935   36.7943   28.1491 C.3         1 CPB      -0.0305
      4 C15        42.5645   37.1162   27.0370 C.3         1 CPB      -0.0017
      5 C14        43.1731   37.9658   25.8725 C.3         1 CPB       0.0215
      6 C13        44.4794   37.2595   25.3637 C.3         1 CPB       0.1030
      7 C12        45.4405   36.8539   26.5135 C.3         1 CPB      -0.0040
      8 C8         42.2787   38.3651   24.7102 C.ar        1 CPB       0.0228
      9 C9         40.9828   37.8275   24.4474 C.ar        1 CPB       0.1322
     10 O1         40.3509   37.0420   25.3909 O.3         1 CPB      -0.2448
     11 C2         39.2704   36.2996   25.0691 C.2         1 CPB       0.1417
     12 C3         38.6191   36.4915   23.9065 C.2         1 CPB       0.0078
     13 C4         39.0727   37.4117   23.0152 C.2         1 CPB       0.0995
     14 O4         38.3790   37.6338   22.0305 O.2         1 CPB      -0.4249
     15 C10        40.2953   38.0799   23.2220 C.ar        1 CPB       0.0721
     16 C5         40.8805   38.9521   22.2715 C.ar        1 CPB       0.0869
     17 O5         40.3175   39.1759   21.0493 O.3         1 CPB      -0.3368
     18 C6         42.1020   39.5784   22.5659 C.ar        1 CPB      -0.0144
     19 C7         42.7851   39.2942   23.7597 C.ar        1 CPB       0.0802
     20 O7         43.9637   39.9444   23.9534 O.3         1 CPB      -0.3389
     21 C21        38.8086   35.4274   26.0415 C.ar        1 CPB       0.0440
     22 C22        38.8986   34.0139   25.9142 C.ar        1 CPB       0.0577
     23 CL1        39.6271   33.2592   24.5802 Cl          1 CPB      -0.0650
     24 C23        38.4091   33.1852   26.9453 C.ar        1 CPB      -0.0431
     25 C24        37.8320   33.7432   28.0984 C.ar        1 CPB      -0.0577
     26 C25        37.7463   35.1410   28.2343 C.ar        1 CPB      -0.0569
     27 C26        38.2447   35.9755   27.2182 C.ar        1 CPB      -0.0446
     28 O3         44.1715   36.1125   24.5767 O.3         1 CPB      -0.3849
     29 H1         45.1467   34.8846   29.3064 H           1 CPB       0.0778
     30 H2         46.1419   36.3498   29.1681 H           1 CPB       0.0778
     31 H3         46.4706   34.9349   28.1469 H           1 CPB       0.0778
     32 H4         44.3511   35.2228   27.0983 H           1 CPB       0.2031
     33 H5         43.9263   37.7193   28.6324 H           1 CPB       0.0816
     34 H6         43.0953   36.1792   28.9051 H           1 CPB       0.0816
     35 H7         41.7188   37.6484   27.4832 H           1 CPB       0.0335
     36 H8         42.2174   36.1516   26.6646 H           1 CPB       0.0335
     37 H9         43.4764   38.9037   26.3526 H           1 CPB       0.0427
     38 H10        45.0351   37.9358   24.7095 H           1 CPB       0.0665
     39 H11        46.2623   36.2724   26.0833 H           1 CPB       0.0841
     40 H12        45.8746   37.7573   26.9554 H           1 CPB       0.0841
     41 H13        37.7863   35.9775   23.7131 H           1 CPB       0.0418
     42 H14        40.4653   40.1167   20.8468 H           1 CPB       0.2482
     43 H15        42.5186   40.2265   21.8891 H           1 CPB       0.0388
     44 H16        43.7129   40.7962   24.3835 H           1 CPB       0.2468
     45 H17        38.4808   32.1666   26.8672 H           1 CPB       0.0633
     46 H18        37.4800   33.1340   28.8414 H           1 CPB       0.0647
     47 H19        37.3258   35.5466   29.0728 H           1 CPB       0.0629
     48 H20        38.1690   36.9898   27.3405 H           1 CPB       0.0661
     49 H21        43.8933   35.4209   25.2106 H           1 CPB       0.2102
@<TRIPOS>BOND
     1     1     2   1
     2     2     3   1
     3     2     7   1
     4     3     4   1
     5     4     5   1
     6     5     6   1
     7     5     8   1
     8     6     7   1
     9     6    28   1
    10     8     9  ar
    11     8    19  ar
    12     9    10   1
    13     9    15  ar
    14    10    11   1
    15    11    12   2
    16    11    21   1
    17    12    13   1
    18    13    14   2
    19    13    15   1
    20    15    16  ar
    21    16    17   1
    22    16    18  ar
    23    18    19  ar
    24    19    20   1
    25    21    22  ar
    26    21    27  ar
    27    22    23   1
    28    22    24  ar
    29    24    25  ar
    30    25    26  ar
    31    26    27  ar
    32     1    29   1
    33     1    30   1
    34     1    31   1
    35     2    32   1
    36     3    33   1
    37     3    34   1
    38     4    35   1
    39     4    36   1
    40     5    37   1
    41     6    38   1
    42     7    39   1
    43     7    40   1
    44    12    41   1
    45    17    42   1
    46    18    43   1
    47    20    44   1
    48    24    45   1
    49    25    46   1
    50    26    47   1
    51    27    48   1
    52    28    49   1
@<TRIPOS>SUBSTRUCTURE
     1  CPB      1

