@<TRIPOS>MOLECULE
3ebp_ligand_083
    49    52
SMALL
GAST_HUCK
****
This file was generated by PARSER (from files_GN.cpp)

@<TRIPOS>ATOM
      1 C1         41.4105   41.3792   33.5561 C.3         1 CPB      -0.0430
      2 N1         40.8466   40.0725   33.1139 N.4         1 CPB       0.2351
      3 C16        40.0219   39.4125   34.1706 C.3         1 CPB      -0.0305
      4 C15        39.5158   38.0148   33.7226 C.3         1 CPB      -0.0017
      5 C14        38.7151   38.0838   32.3781 C.3         1 CPB       0.0215
      6 C13        39.6540   38.7708   31.3201 C.3         1 CPB       0.1030
      7 C12        40.1199   40.1695   31.8100 C.3         1 CPB      -0.0040
      8 C8         37.9735   36.7952   32.0501 C.ar        1 CPB       0.0228
      9 C9         38.1772   35.9807   30.8919 C.ar        1 CPB       0.1322
     10 O1         39.1543   36.2886   29.9658 O.3         1 CPB      -0.2448
     11 C2         39.1185   35.7465   28.7250 C.2         1 CPB       0.1417
     12 C3         38.3715   34.6556   28.4627 C.2         1 CPB       0.0078
     13 C4         37.5867   34.1318   29.4330 C.2         1 CPB       0.0995
     14 O4         37.0424   33.0613   29.1921 O.2         1 CPB      -0.4249
     15 C10        37.3731   34.8264   30.6377 C.ar        1 CPB       0.0721
     16 C5         36.3634   34.4654   31.5596 C.ar        1 CPB       0.0869
     17 O5         35.5268   33.4149   31.3452 O.3         1 CPB      -0.3368
     18 C6         36.1636   35.2462   32.7030 C.ar        1 CPB      -0.0144
     19 C7         36.9248   36.4037   32.9302 C.ar        1 CPB       0.0802
     20 O7         36.5530   37.1738   33.9917 O.3         1 CPB      -0.3389
     21 C21        39.9039   36.3509   27.7491 C.ar        1 CPB       0.0440
     22 C22        41.3187   36.4236   27.8601 C.ar        1 CPB       0.0577
     23 CL1        42.1757   35.7099   29.1387 Cl          1 CPB      -0.0650
     24 C23        42.0650   37.0739   26.8580 C.ar        1 CPB      -0.0431
     25 C24        41.4189   37.6562   25.7524 C.ar        1 CPB      -0.0577
     26 C25        40.0191   37.5918   25.6368 C.ar        1 CPB      -0.0569
     27 C26        39.2670   36.9354   26.6242 C.ar        1 CPB      -0.0446
     28 O3         40.8270   37.9895   31.0771 O.3         1 CPB      -0.3849
     29 H1         42.0011   41.2538   34.4657 H           1 CPB       0.0778
     30 H2         40.6228   42.1091   33.7464 H           1 CPB       0.0778
     31 H3         42.0836   41.7847   32.7884 H           1 CPB       0.0778
     32 H4         41.6532   39.4578   32.9537 H           1 CPB       0.2031
     33 H5         39.1627   40.0425   34.4271 H           1 CPB       0.0816
     34 H6         40.6200   39.2848   35.0788 H           1 CPB       0.0816
     35 H7         38.9104   37.6150   34.5377 H           1 CPB       0.0335
     36 H8         40.3718   37.3461   33.6094 H           1 CPB       0.0335
     37 H9         37.9109   38.8191   32.5265 H           1 CPB       0.0427
     38 H10        39.1107   38.9020   30.3799 H           1 CPB       0.0665
     39 H11        40.7790   40.5938   31.0470 H           1 CPB       0.0841
     40 H12        39.2535   40.8281   31.9031 H           1 CPB       0.0841
     41 H13        38.3876   34.2452   27.5546 H           1 CPB       0.0418
     42 H14        34.6831   33.6415   31.7948 H           1 CPB       0.2482
     43 H15        35.4244   34.9926   33.3574 H           1 CPB       0.0388
     44 H16        36.0951   36.5722   34.6241 H           1 CPB       0.2468
     45 H17        43.0821   37.1245   26.9241 H           1 CPB       0.0633
     46 H18        41.9708   38.1312   25.0303 H           1 CPB       0.0647
     47 H19        39.5552   38.0227   24.8383 H           1 CPB       0.0629
     48 H20        38.2479   36.9107   26.5261 H           1 CPB       0.0661
     49 H21        41.3083   38.4667   30.3615 H           1 CPB       0.2102
@<TRIPOS>BOND
     1     1     2   1
     2     2     3   1
     3     2     7   1
     4     3     4   1
     5     4     5   1
     6     5     6   1
     7     5     8   1
     8     6     7   1
     9     6    28   1
    10     8     9  ar
    11     8    19  ar
    12     9    10   1
    13     9    15  ar
    14    10    11   1
    15    11    12   2
    16    11    21   1
    17    12    13   1
    18    13    14   2
    19    13    15   1
    20    15    16  ar
    21    16    17   1
    22    16    18  ar
    23    18    19  ar
    24    19    20   1
    25    21    22  ar
    26    21    27  ar
    27    22    23   1
    28    22    24  ar
    29    24    25  ar
    30    25    26  ar
    31    26    27  ar
    32     1    29   1
    33     1    30   1
    34     1    31   1
    35     2    32   1
    36     3    33   1
    37     3    34   1
    38     4    35   1
    39     4    36   1
    40     5    37   1
    41     6    38   1
    42     7    39   1
    43     7    40   1
    44    12    41   1
    45    17    42   1
    46    18    43   1
    47    20    44   1
    48    24    45   1
    49    25    46   1
    50    26    47   1
    51    27    48   1
    52    28    49   1
@<TRIPOS>SUBSTRUCTURE
     1  CPB      1

