@<TRIPOS>MOLECULE
3ebp_ligand_046
    49    52
SMALL
GAST_HUCK
****
This file was generated by PARSER (from files_GN.cpp)

@<TRIPOS>ATOM
      1 C1         35.0305   34.7492   39.7658 C.3         1 CPB      -0.0430
      2 N1         35.7550   36.0257   39.5308 N.4         1 CPB       0.2351
      3 C16        34.8305   37.1684   39.2421 C.3         1 CPB      -0.0305
      4 C15        35.6262   38.4303   38.8116 C.3         1 CPB      -0.0017
      5 C14        36.7500   38.7948   39.8299 C.3         1 CPB       0.0215
      6 C13        37.6174   37.5612   40.2214 C.3         1 CPB       0.1030
      7 C12        36.7187   36.3599   40.6266 C.3         1 CPB      -0.0040
      8 C8         37.6020   39.9872   39.4563 C.ar        1 CPB       0.0228
      9 C9         38.2029   40.1505   38.1647 C.ar        1 CPB       0.1322
     10 O1         38.1343   39.1466   37.1936 O.3         1 CPB      -0.2448
     11 C2         38.5892   39.3372   35.9187 C.2         1 CPB       0.1417
     12 C3         39.0909   40.5468   35.5805 C.2         1 CPB       0.0078
     13 C4         39.3292   41.5046   36.5179 C.2         1 CPB       0.0995
     14 O4         39.9029   42.5247   36.1499 O.2         1 CPB      -0.4249
     15 C10        38.9075   41.3474   37.8410 C.ar        1 CPB       0.0721
     16 C5         39.1299   42.3208   38.8503 C.ar        1 CPB       0.0869
     17 O5         39.8412   43.4617   38.6364 O.3         1 CPB      -0.3368
     18 C6         38.6223   42.1240   40.1435 C.ar        1 CPB      -0.0144
     19 C7         37.8539   40.9885   40.4380 C.ar        1 CPB       0.0802
     20 O7         37.4124   40.8907   41.7176 O.3         1 CPB      -0.3389
     21 C21        38.4398   38.3019   34.9622 C.ar        1 CPB       0.0440
     22 C22        39.3138   38.0849   33.8465 C.ar        1 CPB       0.0577
     23 CL1        40.7674   38.9245   33.5772 Cl          1 CPB      -0.0650
     24 C23        39.0463   37.0679   32.8982 C.ar        1 CPB      -0.0431
     25 C24        37.9381   36.2183   33.0519 C.ar        1 CPB      -0.0577
     26 C25        37.0935   36.3819   34.1593 C.ar        1 CPB      -0.0569
     27 C26        37.3432   37.4068   35.0949 C.ar        1 CPB      -0.0446
     28 O3         38.4795   37.1445   39.1642 O.3         1 CPB      -0.3849
     29 H1         34.4441   34.4865   38.8836 H           1 CPB       0.0778
     30 H2         34.3588   34.8227   40.6274 H           1 CPB       0.0778
     31 H3         35.7367   33.9331   39.9411 H           1 CPB       0.0778
     32 H4         36.3155   35.8820   38.6860 H           1 CPB       0.2031
     33 H5         34.2155   37.3968   40.1204 H           1 CPB       0.0816
     34 H6         34.1583   36.8982   38.4228 H           1 CPB       0.0816
     35 H7         34.9336   39.2692   38.7017 H           1 CPB       0.0335
     36 H8         36.0533   38.2084   37.8358 H           1 CPB       0.0335
     37 H9         36.1915   39.0501   40.7385 H           1 CPB       0.0427
     38 H10        38.2488   37.8196   41.0809 H           1 CPB       0.0665
     39 H11        37.3665   35.5041   40.8378 H           1 CPB       0.0841
     40 H12        36.1786   36.5997   41.5493 H           1 CPB       0.0841
     41 H13        39.2635   40.7607   34.6216 H           1 CPB       0.0418
     42 H14        40.7754   43.1655   38.6105 H           1 CPB       0.2482
     43 H15        38.8060   42.8181   40.8709 H           1 CPB       0.0388
     44 H16        36.4801   41.1829   41.6767 H           1 CPB       0.2468
     45 H17        39.6677   36.9171   32.0976 H           1 CPB       0.0633
     46 H18        37.7592   35.4761   32.3666 H           1 CPB       0.0647
     47 H19        36.2908   35.7633   34.2758 H           1 CPB       0.0629
     48 H20        36.6793   37.5063   35.8579 H           1 CPB       0.0661
     49 H21        39.1738   37.8342   39.1122 H           1 CPB       0.2102
@<TRIPOS>BOND
     1     1     2   1
     2     2     3   1
     3     2     7   1
     4     3     4   1
     5     4     5   1
     6     5     6   1
     7     5     8   1
     8     6     7   1
     9     6    28   1
    10     8     9  ar
    11     8    19  ar
    12     9    10   1
    13     9    15  ar
    14    10    11   1
    15    11    12   2
    16    11    21   1
    17    12    13   1
    18    13    14   2
    19    13    15   1
    20    15    16  ar
    21    16    17   1
    22    16    18  ar
    23    18    19  ar
    24    19    20   1
    25    21    22  ar
    26    21    27  ar
    27    22    23   1
    28    22    24  ar
    29    24    25  ar
    30    25    26  ar
    31    26    27  ar
    32     1    29   1
    33     1    30   1
    34     1    31   1
    35     2    32   1
    36     3    33   1
    37     3    34   1
    38     4    35   1
    39     4    36   1
    40     5    37   1
    41     6    38   1
    42     7    39   1
    43     7    40   1
    44    12    41   1
    45    17    42   1
    46    18    43   1
    47    20    44   1
    48    24    45   1
    49    25    46   1
    50    26    47   1
    51    27    48   1
    52    28    49   1
@<TRIPOS>SUBSTRUCTURE
     1  CPB      1

