@<TRIPOS>MOLECULE
3ebp_ligand_078
    49    52
SMALL
GAST_HUCK
****
This file was generated by PARSER (from files_GN.cpp)

@<TRIPOS>ATOM
      1 C1         39.3008   36.6755   27.9667 C.3         1 CPB      -0.0430
      2 N1         38.9066   37.0029   29.3663 N.4         1 CPB       0.2351
      3 C16        37.8285   36.1071   29.8751 C.3         1 CPB      -0.0305
      4 C15        37.3482   36.5704   31.2724 C.3         1 CPB      -0.0017
      5 C14        38.5170   36.5617   32.3195 C.3         1 CPB       0.0215
      6 C13        39.6665   37.4590   31.7255 C.3         1 CPB       0.1030
      7 C12        40.0802   37.0392   30.2870 C.3         1 CPB      -0.0040
      8 C8         38.0212   36.8044   33.7380 C.ar        1 CPB       0.0228
      9 C9         38.4905   37.8213   34.6160 C.ar        1 CPB       0.1322
     10 O1         39.6293   38.5233   34.2817 O.3         1 CPB      -0.2448
     11 C2         40.0841   39.5503   35.0406 C.2         1 CPB       0.1417
     12 C3         39.4873   39.8753   36.2022 C.2         1 CPB       0.0078
     13 C4         38.4088   39.1653   36.6291 C.2         1 CPB       0.0995
     14 O4         37.9092   39.5050   37.6974 O.2         1 CPB      -0.4249
     15 C10        37.8875   38.0896   35.8836 C.ar        1 CPB       0.0721
     16 C5         36.8300   37.2602   36.3221 C.ar        1 CPB       0.0869
     17 O5         36.2012   37.4218   37.5116 O.3         1 CPB      -0.3368
     18 C6         36.4234   36.1815   35.5172 C.ar        1 CPB      -0.0144
     19 C7         37.0323   35.9313   34.2741 C.ar        1 CPB       0.0802
     20 O7         36.6416   34.8010   33.6193 O.3         1 CPB      -0.3389
     21 C21        41.2159   40.1849   34.5592 C.ar        1 CPB       0.0440
     22 C22        41.1850   41.4977   34.0207 C.ar        1 CPB       0.0577
     23 CL1        39.7604   42.4173   33.9210 Cl          1 CPB      -0.0650
     24 C23        42.3649   42.0639   33.4902 C.ar        1 CPB      -0.0431
     25 C24        43.5694   41.3355   33.4870 C.ar        1 CPB      -0.0577
     26 C25        43.5985   40.0328   34.0130 C.ar        1 CPB      -0.0569
     27 C26        42.4296   39.4577   34.5358 C.ar        1 CPB      -0.0446
     28 O3         39.3101   38.8448   31.6867 O.3         1 CPB      -0.3849
     29 H1         38.4285   36.7150   27.3064 H           1 CPB       0.0778
     30 H2         39.7453   35.6758   27.9022 H           1 CPB       0.0778
     31 H3         40.0271   37.4052   27.5955 H           1 CPB       0.0778
     32 H4         38.5156   37.9468   29.3383 H           1 CPB       0.2031
     33 H5         38.1738   35.0702   29.9356 H           1 CPB       0.0816
     34 H6         36.9768   36.1319   29.1977 H           1 CPB       0.0816
     35 H7         36.5312   35.9107   31.5553 H           1 CPB       0.0335
     36 H8         36.9392   37.5755   31.2007 H           1 CPB       0.0335
     37 H9         38.9231   35.5388   32.3231 H           1 CPB       0.0427
     38 H10        40.5587   37.3593   32.3447 H           1 CPB       0.0665
     39 H11        40.8153   37.7609   29.9127 H           1 CPB       0.0841
     40 H12        40.5673   36.0600   30.3135 H           1 CPB       0.0841
     41 H13        39.8659   40.5976   36.7627 H           1 CPB       0.0418
     42 H14        36.9140   37.4894   38.1892 H           1 CPB       0.2482
     43 H15        35.6766   35.5656   35.8521 H           1 CPB       0.0388
     44 H16        36.5082   34.1107   34.3210 H           1 CPB       0.2468
     45 H17        42.3523   43.0051   33.0863 H           1 CPB       0.0633
     46 H18        44.4162   41.7507   33.0907 H           1 CPB       0.0647
     47 H19        44.4750   39.5028   34.0025 H           1 CPB       0.0629
     48 H20        42.4759   38.5049   34.9040 H           1 CPB       0.0661
     49 H21        38.5107   38.9168   31.1112 H           1 CPB       0.2102
@<TRIPOS>BOND
     1     1     2   1
     2     2     3   1
     3     2     7   1
     4     3     4   1
     5     4     5   1
     6     5     6   1
     7     5     8   1
     8     6     7   1
     9     6    28   1
    10     8     9  ar
    11     8    19  ar
    12     9    10   1
    13     9    15  ar
    14    10    11   1
    15    11    12   2
    16    11    21   1
    17    12    13   1
    18    13    14   2
    19    13    15   1
    20    15    16  ar
    21    16    17   1
    22    16    18  ar
    23    18    19  ar
    24    19    20   1
    25    21    22  ar
    26    21    27  ar
    27    22    23   1
    28    22    24  ar
    29    24    25  ar
    30    25    26  ar
    31    26    27  ar
    32     1    29   1
    33     1    30   1
    34     1    31   1
    35     2    32   1
    36     3    33   1
    37     3    34   1
    38     4    35   1
    39     4    36   1
    40     5    37   1
    41     6    38   1
    42     7    39   1
    43     7    40   1
    44    12    41   1
    45    17    42   1
    46    18    43   1
    47    20    44   1
    48    24    45   1
    49    25    46   1
    50    26    47   1
    51    27    48   1
    52    28    49   1
@<TRIPOS>SUBSTRUCTURE
     1  CPB      1

