@<TRIPOS>MOLECULE
3ebp_ligand_042
    49    52
SMALL
GAST_HUCK
****
This file was generated by PARSER (from files_GN.cpp)

@<TRIPOS>ATOM
      1 C1         36.1560   33.4939   30.6838 C.3         1 CPB      -0.0430
      2 N1         36.8733   34.5556   31.4464 N.4         1 CPB       0.2351
      3 C16        37.6754   35.4589   30.5665 C.3         1 CPB      -0.0305
      4 C15        38.4847   36.4896   31.3972 C.3         1 CPB      -0.0017
      5 C14        37.5708   37.3355   32.3499 C.3         1 CPB       0.0215
      6 C13        36.7551   36.3377   33.2336 C.3         1 CPB       0.1030
      7 C12        35.9759   35.3064   32.3742 C.3         1 CPB      -0.0040
      8 C8         38.3127   38.4963   32.9927 C.ar        1 CPB       0.0228
      9 C9         38.5043   38.7203   34.3978 C.ar        1 CPB       0.1322
     10 O1         37.9138   37.8978   35.3547 O.3         1 CPB      -0.2448
     11 C2         37.8571   38.2678   36.6652 C.2         1 CPB       0.1417
     12 C3         38.6164   39.2933   37.1162 C.2         1 CPB       0.0078
     13 C4         39.3802   40.0062   36.2559 C.2         1 CPB       0.0995
     14 O4         40.0681   40.8987   36.7455 O.2         1 CPB      -0.4249
     15 C10        39.2881   39.8136   34.8710 C.ar        1 CPB       0.0721
     16 C5         39.8943   40.6938   33.9345 C.ar        1 CPB       0.0869
     17 O5         40.6797   41.7407   34.2898 O.3         1 CPB      -0.3368
     18 C6         39.6423   40.5351   32.5698 C.ar        1 CPB      -0.0144
     19 C7         38.8428   39.4856   32.1064 C.ar        1 CPB       0.0802
     20 O7         38.6017   39.4950   30.7671 O.3         1 CPB      -0.3389
     21 C21        36.9911   37.5761   37.5173 C.ar        1 CPB       0.0440
     22 C22        36.8808   36.1588   37.4927 C.ar        1 CPB       0.0577
     23 CL1        37.9973   35.1704   36.6815 Cl          1 CPB      -0.0650
     24 C23        35.8852   35.5093   38.2503 C.ar        1 CPB      -0.0431
     25 C24        35.0273   36.2446   39.0872 C.ar        1 CPB      -0.0577
     26 C25        35.1978   37.6376   39.2061 C.ar        1 CPB      -0.0569
     27 C26        36.1604   38.2919   38.4178 C.ar        1 CPB      -0.0446
     28 O3         37.6276   35.5700   34.0498 O.3         1 CPB      -0.3849
     29 H1         36.8632   32.9114   30.0914 H           1 CPB       0.0778
     30 H2         35.4055   33.9187   30.0149 H           1 CPB       0.0778
     31 H3         35.6627   32.8033   31.3708 H           1 CPB       0.0778
     32 H4         37.5457   34.0738   32.0398 H           1 CPB       0.2031
     33 H5         37.0259   35.9824   29.8598 H           1 CPB       0.0816
     34 H6         38.3852   34.8612   29.9862 H           1 CPB       0.0816
     35 H7         39.0232   37.1226   30.6930 H           1 CPB       0.0335
     36 H8         39.2330   35.9612   31.9904 H           1 CPB       0.0335
     37 H9         36.8112   37.8023   31.7152 H           1 CPB       0.0427
     38 H10        36.0471   36.8973   33.8553 H           1 CPB       0.0665
     39 H11        35.4896   34.6015   33.0528 H           1 CPB       0.0841
     40 H12        35.1933   35.8270   31.8192 H           1 CPB       0.0841
     41 H13        38.5984   39.5352   38.0814 H           1 CPB       0.0418
     42 H14        41.4126   41.3497   34.8080 H           1 CPB       0.2482
     43 H15        40.0381   41.2048   31.9035 H           1 CPB       0.0388
     44 H16        37.6339   39.6064   30.6747 H           1 CPB       0.2468
     45 H17        35.7734   34.4930   38.1908 H           1 CPB       0.0633
     46 H18        34.2834   35.7755   39.6077 H           1 CPB       0.0647
     47 H19        34.5986   38.1693   39.8385 H           1 CPB       0.0629
     48 H20        36.2192   39.3137   38.4871 H           1 CPB       0.0661
     49 H21        37.0494   35.1023   34.7002 H           1 CPB       0.2102
@<TRIPOS>BOND
     1     1     2   1
     2     2     3   1
     3     2     7   1
     4     3     4   1
     5     4     5   1
     6     5     6   1
     7     5     8   1
     8     6     7   1
     9     6    28   1
    10     8     9  ar
    11     8    19  ar
    12     9    10   1
    13     9    15  ar
    14    10    11   1
    15    11    12   2
    16    11    21   1
    17    12    13   1
    18    13    14   2
    19    13    15   1
    20    15    16  ar
    21    16    17   1
    22    16    18  ar
    23    18    19  ar
    24    19    20   1
    25    21    22  ar
    26    21    27  ar
    27    22    23   1
    28    22    24  ar
    29    24    25  ar
    30    25    26  ar
    31    26    27  ar
    32     1    29   1
    33     1    30   1
    34     1    31   1
    35     2    32   1
    36     3    33   1
    37     3    34   1
    38     4    35   1
    39     4    36   1
    40     5    37   1
    41     6    38   1
    42     7    39   1
    43     7    40   1
    44    12    41   1
    45    17    42   1
    46    18    43   1
    47    20    44   1
    48    24    45   1
    49    25    46   1
    50    26    47   1
    51    27    48   1
    52    28    49   1
@<TRIPOS>SUBSTRUCTURE
     1  CPB      1

