@<TRIPOS>MOLECULE
3ebp_ligand_018
    49    52
SMALL
GAST_HUCK
****
This file was generated by PARSER (from files_GN.cpp)

@<TRIPOS>ATOM
      1 C1         39.8197   42.9501   29.1975 C.3         1 CPB      -0.0430
      2 N1         39.7021   41.6840   28.4239 N.4         1 CPB       0.2351
      3 C16        40.4007   40.5439   29.0921 C.3         1 CPB      -0.0305
      4 C15        40.3860   39.2749   28.2000 C.3         1 CPB      -0.0017
      5 C14        38.9366   38.8993   27.7718 C.3         1 CPB       0.0215
      6 C13        38.1963   40.1301   27.1384 C.3         1 CPB       0.1030
      7 C12        38.2808   41.3668   28.0768 C.3         1 CPB      -0.0040
      8 C8         38.8864   37.5889   27.0180 C.ar        1 CPB       0.0228
      9 C9         38.4041   36.4030   27.6518 C.ar        1 CPB       0.1322
     10 O1         37.9785   36.4347   28.9786 O.3         1 CPB      -0.2448
     11 C2         37.7387   35.2895   29.6755 C.2         1 CPB       0.1417
     12 C3         37.7868   34.0973   29.0468 C.2         1 CPB       0.0078
     13 C4         37.9900   34.0252   27.7031 C.2         1 CPB       0.0995
     14 O4         37.9395   32.9164   27.1904 O.2         1 CPB      -0.4249
     15 C10        38.3679   35.1531   26.9652 C.ar        1 CPB       0.0721
     16 C5         38.7625   35.1066   25.6065 C.ar        1 CPB       0.0869
     17 O5         38.7013   33.9743   24.8558 O.3         1 CPB      -0.3368
     18 C6         39.2850   36.2503   24.9889 C.ar        1 CPB      -0.0144
     19 C7         39.3900   37.4625   25.6927 C.ar        1 CPB       0.0802
     20 O7         40.0281   38.4722   25.0597 O.3         1 CPB      -0.3389
     21 C21        37.5358   35.4075   31.0640 C.ar        1 CPB       0.0440
     22 C22        36.5572   34.6725   31.8011 C.ar        1 CPB       0.0577
     23 CL1        35.3846   33.6713   31.0855 Cl          1 CPB      -0.0650
     24 C23        36.4525   34.8268   33.2024 C.ar        1 CPB      -0.0431
     25 C24        37.2814   35.7277   33.8862 C.ar        1 CPB      -0.0577
     26 C25        38.2236   36.4833   33.1736 C.ar        1 CPB      -0.0569
     27 C26        38.3481   36.3226   31.7816 C.ar        1 CPB      -0.0446
     28 O3         38.7176   40.5543   25.8749 O.3         1 CPB      -0.3849
     29 H1         40.8670   43.1798   29.4007 H           1 CPB       0.0778
     30 H2         39.2840   42.8832   30.1471 H           1 CPB       0.0778
     31 H3         39.4094   43.7811   28.6204 H           1 CPB       0.0778
     32 H4         40.1923   41.8401   27.5394 H           1 CPB       0.2031
     33 H5         39.9280   40.3185   30.0530 H           1 CPB       0.0816
     34 H6         41.4443   40.8034   29.2866 H           1 CPB       0.0816
     35 H7         40.8245   38.4455   28.7658 H           1 CPB       0.0335
     36 H8         41.0143   39.4516   27.3222 H           1 CPB       0.0335
     37 H9         38.4103   38.7575   28.7159 H           1 CPB       0.0427
     38 H10        37.1377   39.8813   26.9999 H           1 CPB       0.0665
     39 H11        37.8245   42.2206   27.5649 H           1 CPB       0.0841
     40 H12        37.6942   41.1819   28.9819 H           1 CPB       0.0841
     41 H13        37.7386   33.2553   29.5725 H           1 CPB       0.0418
     42 H14        37.7789   33.6547   24.9566 H           1 CPB       0.2482
     43 H15        39.6068   36.1874   24.0167 H           1 CPB       0.0388
     44 H16        40.9727   38.3454   25.2849 H           1 CPB       0.2468
     45 H17        35.7564   34.2986   33.7356 H           1 CPB       0.0633
     46 H18        37.1886   35.8414   34.8984 H           1 CPB       0.0647
     47 H19        38.8241   37.1458   33.6701 H           1 CPB       0.0629
     48 H20        39.0582   36.8828   31.2989 H           1 CPB       0.0661
     49 H21        38.3161   39.9505   25.2100 H           1 CPB       0.2102
@<TRIPOS>BOND
     1     1     2   1
     2     2     3   1
     3     2     7   1
     4     3     4   1
     5     4     5   1
     6     5     6   1
     7     5     8   1
     8     6     7   1
     9     6    28   1
    10     8     9  ar
    11     8    19  ar
    12     9    10   1
    13     9    15  ar
    14    10    11   1
    15    11    12   2
    16    11    21   1
    17    12    13   1
    18    13    14   2
    19    13    15   1
    20    15    16  ar
    21    16    17   1
    22    16    18  ar
    23    18    19  ar
    24    19    20   1
    25    21    22  ar
    26    21    27  ar
    27    22    23   1
    28    22    24  ar
    29    24    25  ar
    30    25    26  ar
    31    26    27  ar
    32     1    29   1
    33     1    30   1
    34     1    31   1
    35     2    32   1
    36     3    33   1
    37     3    34   1
    38     4    35   1
    39     4    36   1
    40     5    37   1
    41     6    38   1
    42     7    39   1
    43     7    40   1
    44    12    41   1
    45    17    42   1
    46    18    43   1
    47    20    44   1
    48    24    45   1
    49    25    46   1
    50    26    47   1
    51    27    48   1
    52    28    49   1
@<TRIPOS>SUBSTRUCTURE
     1  CPB      1

