@<TRIPOS>MOLECULE
3ebp_ligand_070
    49    52
SMALL
GAST_HUCK
****
This file was generated by PARSER (from files_GN.cpp)

@<TRIPOS>ATOM
      1 C1         44.2482   43.1951   22.4604 C.3         1 CPB      -0.0430
      2 N1         43.3908   42.0808   22.9541 N.4         1 CPB       0.2351
      3 C16        44.0152   40.7431   22.7078 C.3         1 CPB      -0.0305
      4 C15        43.0614   39.5880   23.1080 C.3         1 CPB      -0.0017
      5 C14        42.5830   39.7409   24.5810 C.3         1 CPB       0.0215
      6 C13        42.0047   41.1675   24.8592 C.3         1 CPB       0.1030
      7 C12        42.9868   42.2761   24.3829 C.3         1 CPB      -0.0040
      8 C8         41.7038   38.5972   25.0497 C.ar        1 CPB       0.0228
      9 C9         42.1217   37.7324   26.1046 C.ar        1 CPB       0.1322
     10 O1         43.3757   37.9110   26.6733 O.3         1 CPB      -0.2448
     11 C2         43.7878   37.1118   27.6830 C.2         1 CPB       0.1417
     12 C3         43.0195   36.1185   28.1652 C.2         1 CPB       0.0078
     13 C4         41.7862   35.8934   27.6382 C.2         1 CPB       0.0995
     14 O4         41.1124   35.0051   28.1506 O.2         1 CPB      -0.4249
     15 C10        41.2956   36.6701   26.5796 C.ar        1 CPB       0.0721
     16 C5         40.0410   36.4536   25.9590 C.ar        1 CPB       0.0869
     17 O5         39.1971   35.4627   26.3499 O.3         1 CPB      -0.3368
     18 C6         39.6262   37.2776   24.9042 C.ar        1 CPB      -0.0144
     19 C7         40.4401   38.3353   24.4549 C.ar        1 CPB       0.0802
     20 O7         39.9706   39.0479   23.4048 O.3         1 CPB      -0.3389
     21 C21        45.0515   37.3496   28.1939 C.ar        1 CPB       0.0440
     22 C22        45.2568   38.0724   29.3990 C.ar        1 CPB       0.0577
     23 CL1        43.9705   38.7326   30.2918 Cl          1 CPB      -0.0650
     24 C23        46.5658   38.2623   29.8910 C.ar        1 CPB      -0.0431
     25 C24        47.6709   37.7393   29.1938 C.ar        1 CPB      -0.0577
     26 C25        47.4735   37.0320   27.9971 C.ar        1 CPB      -0.0569
     27 C26        46.1734   36.8420   27.4953 C.ar        1 CPB      -0.0446
     28 O3         40.7327   41.3898   24.2607 O.3         1 CPB      -0.3849
     29 H1         44.4950   43.0559   21.4072 H           1 CPB       0.0778
     30 H2         45.1788   43.2640   23.0265 H           1 CPB       0.0778
     31 H3         43.7200   44.1486   22.5438 H           1 CPB       0.0778
     32 H4         42.5288   42.1194   22.4038 H           1 CPB       0.2031
     33 H5         44.9528   40.6548   23.2684 H           1 CPB       0.0816
     34 H6         44.2442   40.6342   21.6433 H           1 CPB       0.0816
     35 H7         43.5957   38.6393   23.0028 H           1 CPB       0.0335
     36 H8         42.2123   39.5835   22.4135 H           1 CPB       0.0335
     37 H9         43.5018   39.7236   25.1647 H           1 CPB       0.0427
     38 H10        41.8436   41.2879   25.9323 H           1 CPB       0.0665
     39 H11        42.4949   43.2447   24.5021 H           1 CPB       0.0841
     40 H12        43.8704   42.2719   25.0322 H           1 CPB       0.0841
     41 H13        43.3621   35.5365   28.9028 H           1 CPB       0.0418
     42 H14        39.2473   34.7993   25.6317 H           1 CPB       0.2482
     43 H15        38.7303   37.1066   24.4461 H           1 CPB       0.0388
     44 H16        39.0186   39.1956   23.5902 H           1 CPB       0.2468
     45 H17        46.7261   38.7806   30.7584 H           1 CPB       0.0633
     46 H18        48.6192   37.8839   29.5550 H           1 CPB       0.0647
     47 H19        48.2779   36.6459   27.4937 H           1 CPB       0.0629
     48 H20        46.0495   36.3071   26.6297 H           1 CPB       0.0661
     49 H21        40.3964   42.2165   24.6562 H           1 CPB       0.2102
@<TRIPOS>BOND
     1     1     2   1
     2     2     3   1
     3     2     7   1
     4     3     4   1
     5     4     5   1
     6     5     6   1
     7     5     8   1
     8     6     7   1
     9     6    28   1
    10     8     9  ar
    11     8    19  ar
    12     9    10   1
    13     9    15  ar
    14    10    11   1
    15    11    12   2
    16    11    21   1
    17    12    13   1
    18    13    14   2
    19    13    15   1
    20    15    16  ar
    21    16    17   1
    22    16    18  ar
    23    18    19  ar
    24    19    20   1
    25    21    22  ar
    26    21    27  ar
    27    22    23   1
    28    22    24  ar
    29    24    25  ar
    30    25    26  ar
    31    26    27  ar
    32     1    29   1
    33     1    30   1
    34     1    31   1
    35     2    32   1
    36     3    33   1
    37     3    34   1
    38     4    35   1
    39     4    36   1
    40     5    37   1
    41     6    38   1
    42     7    39   1
    43     7    40   1
    44    12    41   1
    45    17    42   1
    46    18    43   1
    47    20    44   1
    48    24    45   1
    49    25    46   1
    50    26    47   1
    51    27    48   1
    52    28    49   1
@<TRIPOS>SUBSTRUCTURE
     1  CPB      1

