@<TRIPOS>MOLECULE
3ehy_ligand_026
    29    29
SMALL
GAST_HUCK
****
This file was generated by PARSER (from files_GN.cpp)

@<TRIPOS>ATOM
      1 O4          0.0115   -4.1806   -7.3895 O.2         1 TBL      -0.1516
      2 S1         -0.5380   -4.5994   -5.9569 S.o2        1 TBL       0.0650
      3 O3          0.2276   -5.9589   -5.6466 O.2         1 TBL      -0.1516
      4 N1         -2.1796   -4.8950   -6.1895 N.am        1 TBL      -0.2329
      5 C2         -3.1287   -5.0973   -5.1360 C.3         1 TBL       0.0869
      6 C10        -4.2687   -5.9921   -5.6765 C.3         1 TBL      -0.0335
      7 C1         -3.6761   -3.8093   -4.6426 C.2         1 TBL       0.0561
      8 O2         -4.8211   -3.7861   -3.9091 O.co2       1 TBL      -0.5670
      9 O1         -2.9276   -2.6792   -4.6499 O.co2       1 TBL      -0.5670
     10 C3         -0.1453   -3.3343   -4.8296 C.ar        1 TBL       0.0970
     11 C4         -0.1758   -1.9745   -5.2115 C.ar        1 TBL      -0.0441
     12 C5          0.0688   -0.9624   -4.2659 C.ar        1 TBL      -0.0313
     13 C6          0.3494   -1.2938   -2.9235 C.ar        1 TBL       0.0908
     14 C8          0.4047   -2.6516   -2.5473 C.ar        1 TBL      -0.0313
     15 C9          0.1640   -3.6633   -3.4919 C.ar        1 TBL      -0.0441
     16 O5          0.6287   -0.3162   -2.0071 O.3         1 TBL      -0.3212
     17 C7         -0.5433    0.2856   -1.4288 C.3         1 TBL       0.0594
     18 H1         -2.5131   -4.8973   -7.1068 H           1 TBL       0.1696
     19 H2         -2.6571   -5.5930   -4.2831 H           1 TBL       0.0677
     20 H3         -4.9781   -6.2343   -4.8820 H           1 TBL       0.0266
     21 H4         -3.8428   -6.9310   -6.0442 H           1 TBL       0.0266
     22 H5         -4.8047   -5.5048   -6.4872 H           1 TBL       0.0266
     23 H6         -0.3823   -1.7082   -6.1767 H           1 TBL       0.0608
     24 H7          0.0430    0.0209   -4.5550 H           1 TBL       0.0542
     25 H8          0.6256   -2.9049   -1.5783 H           1 TBL       0.0542
     26 H9          0.2060   -4.6430   -3.1958 H           1 TBL       0.0608
     27 H10        -0.2163    1.0332   -0.7085 H           1 TBL       0.0577
     28 H11        -1.1553   -0.4514   -0.8988 H           1 TBL       0.0577
     29 H12        -1.1532    0.7852   -2.1837 H           1 TBL       0.0577
@<TRIPOS>BOND
     1     1     2   2
     2     2     3   2
     3     2     4  am
     4     2    10   1
     5     4     5   1
     6     5     6   1
     7     5     7   1
     8     7     8  ar
     9     7     9  ar
    10    10    11  ar
    11    10    15  ar
    12    11    12  ar
    13    12    13  ar
    14    13    14  ar
    15    13    16   1
    16    14    15  ar
    17    16    17   1
    18     4    18   1
    19     5    19   1
    20     6    20   1
    21     6    21   1
    22     6    22   1
    23    11    23   1
    24    12    24   1
    25    14    25   1
    26    15    26   1
    27    17    27   1
    28    17    28   1
    29    17    29   1
@<TRIPOS>SUBSTRUCTURE
     1  TBL      5

