@<TRIPOS>MOLECULE
3ehy_ligand_006
    29    29
SMALL
GAST_HUCK
****
This file was generated by PARSER (from files_GN.cpp)

@<TRIPOS>ATOM
      1 O4         -0.4926   -2.7577   -4.1637 O.2         1 TBL      -0.1516
      2 S1         -1.8181   -3.6265   -4.3165 S.o2        1 TBL       0.0650
      3 O3         -2.9969   -2.6010   -3.9796 O.2         1 TBL      -0.1516
      4 N1         -1.8933   -4.8563   -3.1734 N.am        1 TBL      -0.2329
      5 C2         -0.8997   -5.8667   -2.9326 C.3         1 TBL       0.0869
      6 C10        -0.2332   -5.5947   -1.5591 C.3         1 TBL      -0.0335
      7 C1          0.1130   -6.0690   -3.9973 C.2         1 TBL       0.0561
      8 O2          1.1136   -5.1918   -4.2021 O.co2       1 TBL      -0.5670
      9 O1         -0.0331   -7.0723   -4.9007 O.co2       1 TBL      -0.5670
     10 C3         -2.0910   -4.2226   -5.9261 C.ar        1 TBL       0.0970
     11 C4         -1.0126   -4.4288   -6.8066 C.ar        1 TBL      -0.0441
     12 C5         -1.2403   -4.9820   -8.0867 C.ar        1 TBL      -0.0313
     13 C6         -2.5491   -5.3284   -8.4839 C.ar        1 TBL       0.0908
     14 C8         -3.6291   -5.0876   -7.6115 C.ar        1 TBL      -0.0313
     15 C9         -3.4012   -4.5482   -6.3338 C.ar        1 TBL      -0.0441
     16 O5         -2.8009   -5.8625   -9.7179 O.3         1 TBL      -0.3212
     17 C7         -2.4212   -7.2450   -9.8170 C.3         1 TBL       0.0594
     18 H1         -2.7168   -4.9293   -2.6566 H           1 TBL       0.1696
     19 H2         -1.4608   -6.8015   -2.8417 H           1 TBL       0.0677
     20 H3          0.5078   -6.3689   -1.3383 H           1 TBL       0.0266
     21 H4         -0.9867   -5.6086   -0.7681 H           1 TBL       0.0266
     22 H5          0.2611   -4.6224   -1.5562 H           1 TBL       0.0266
     23 H6         -0.0574   -4.1968   -6.5312 H           1 TBL       0.0608
     24 H7         -0.4505   -5.1425   -8.7116 H           1 TBL       0.0542
     25 H8         -4.5820   -5.3220   -7.8994 H           1 TBL       0.0542
     26 H9         -4.1971   -4.4002   -5.7075 H           1 TBL       0.0608
     27 H10        -2.7933   -7.6251  -10.7648 H           1 TBL       0.0577
     28 H11        -2.8540   -7.8504   -9.0164 H           1 TBL       0.0577
     29 H12        -1.3357   -7.3526   -9.8085 H           1 TBL       0.0577
@<TRIPOS>BOND
     1     1     2   2
     2     2     3   2
     3     2     4  am
     4     2    10   1
     5     4     5   1
     6     5     6   1
     7     5     7   1
     8     7     8  ar
     9     7     9  ar
    10    10    11  ar
    11    10    15  ar
    12    11    12  ar
    13    12    13  ar
    14    13    14  ar
    15    13    16   1
    16    14    15  ar
    17    16    17   1
    18     4    18   1
    19     5    19   1
    20     6    20   1
    21     6    21   1
    22     6    22   1
    23    11    23   1
    24    12    24   1
    25    14    25   1
    26    15    26   1
    27    17    27   1
    28    17    28   1
    29    17    29   1
@<TRIPOS>SUBSTRUCTURE
     1  TBL      5

