@<TRIPOS>MOLECULE
3ehy_ligand_009
    29    29
SMALL
GAST_HUCK
****
This file was generated by PARSER (from files_GN.cpp)

@<TRIPOS>ATOM
      1 O4         -0.7343    0.2628   -2.7082 O.2         1 TBL      -0.1516
      2 S1          0.5260   -0.0680   -3.6197 S.o2        1 TBL       0.0650
      3 O3          0.5074    1.0949   -4.7036 O.2         1 TBL      -0.1516
      4 N1          0.3156   -1.5032   -4.4835 N.am        1 TBL      -0.2329
      5 C2         -0.5866   -2.5399   -4.1082 C.3         1 TBL       0.0869
      6 C10        -0.1842   -3.8396   -4.8531 C.3         1 TBL      -0.0335
      7 C1         -1.9768   -2.1059   -4.3787 C.2         1 TBL       0.0561
      8 O2         -2.5423   -1.1116   -3.6545 O.co2       1 TBL      -0.5670
      9 O1         -2.7828   -2.7214   -5.2704 O.co2       1 TBL      -0.5670
     10 C3          2.0006    0.0147   -2.6944 C.ar        1 TBL       0.0970
     11 C4          3.1553   -0.6671   -3.1354 C.ar        1 TBL      -0.0441
     12 C5          4.3490   -0.5935   -2.3924 C.ar        1 TBL      -0.0313
     13 C6          4.3943    0.1331   -1.1854 C.ar        1 TBL       0.0908
     14 C8          3.2428    0.8207   -0.7460 C.ar        1 TBL      -0.0313
     15 C9          2.0540    0.7634   -1.4980 C.ar        1 TBL      -0.0441
     16 O5          5.5624    0.2259   -0.4772 O.3         1 TBL      -0.3212
     17 C7          5.7599   -0.8698    0.4322 C.3         1 TBL       0.0594
     18 H1          0.7975   -1.5989   -5.3202 H           1 TBL       0.1696
     19 H2         -0.4939   -2.7410   -3.0351 H           1 TBL       0.0677
     20 H3         -0.8570   -4.6543   -4.5771 H           1 TBL       0.0266
     21 H4          0.8313   -4.1265   -4.5832 H           1 TBL       0.0266
     22 H5         -0.2306   -3.6973   -5.9378 H           1 TBL       0.0266
     23 H6          3.1383   -1.2161   -3.9982 H           1 TBL       0.0608
     24 H7          5.1862   -1.0764   -2.7319 H           1 TBL       0.0542
     25 H8          3.2720    1.3726    0.1147 H           1 TBL       0.0542
     26 H9          1.2327    1.2728   -1.1640 H           1 TBL       0.0608
     27 H10         6.7015   -0.7062    0.9583 H           1 TBL       0.0577
     28 H11         5.8278   -1.8222   -0.1000 H           1 TBL       0.0577
     29 H12         4.9601   -0.9222    1.1749 H           1 TBL       0.0577
@<TRIPOS>BOND
     1     1     2   2
     2     2     3   2
     3     2     4  am
     4     2    10   1
     5     4     5   1
     6     5     6   1
     7     5     7   1
     8     7     8  ar
     9     7     9  ar
    10    10    11  ar
    11    10    15  ar
    12    11    12  ar
    13    12    13  ar
    14    13    14  ar
    15    13    16   1
    16    14    15  ar
    17    16    17   1
    18     4    18   1
    19     5    19   1
    20     6    20   1
    21     6    21   1
    22     6    22   1
    23    11    23   1
    24    12    24   1
    25    14    25   1
    26    15    26   1
    27    17    27   1
    28    17    28   1
    29    17    29   1
@<TRIPOS>SUBSTRUCTURE
     1  TBL      5

