@<TRIPOS>MOLECULE
3ehy_ligand_020
    29    29
SMALL
GAST_HUCK
****
This file was generated by PARSER (from files_GN.cpp)

@<TRIPOS>ATOM
      1 O4        -12.1240  -13.8548   -7.7501 O.2         1 TBL      -0.1516
      2 S1        -12.7466  -12.4084   -7.5162 S.o2        1 TBL       0.0650
      3 O3        -13.6158  -12.5101   -6.1862 O.2         1 TBL      -0.1516
      4 N1        -13.7684  -12.1164   -8.8260 N.am        1 TBL      -0.2329
      5 C2        -14.2867  -10.8286   -9.1506 C.3         1 TBL       0.0869
      6 C10       -15.8310  -10.8414   -9.1042 C.3         1 TBL      -0.0335
      7 C1        -13.7863  -10.4519  -10.4923 C.2         1 TBL       0.0561
      8 O2        -12.7097   -9.6325  -10.6176 O.co2       1 TBL      -0.5670
      9 O1        -14.3331  -10.9853  -11.6137 O.co2       1 TBL      -0.5670
     10 C3        -11.4142  -11.2899   -7.3905 C.ar        1 TBL       0.0970
     11 C4        -10.7893  -10.8171   -8.5655 C.ar        1 TBL      -0.0441
     12 C5         -9.7661   -9.8561   -8.4833 C.ar        1 TBL      -0.0313
     13 C6         -9.3456   -9.3619   -7.2324 C.ar        1 TBL       0.0908
     14 C8         -9.9406   -9.8702   -6.0560 C.ar        1 TBL      -0.0313
     15 C9        -10.9757  -10.8217   -6.1353 C.ar        1 TBL      -0.0441
     16 O5         -8.3192   -8.4467   -7.1995 O.3         1 TBL      -0.3212
     17 C7         -8.6421   -7.1999   -6.5634 C.3         1 TBL       0.0594
     18 H1        -14.0357  -12.8752   -9.3751 H           1 TBL       0.1696
     19 H2        -13.9379  -10.0840   -8.4324 H           1 TBL       0.0677
     20 H3        -16.2250   -9.8589   -9.3643 H           1 TBL       0.0266
     21 H4        -16.1607  -11.0860   -8.0979 H           1 TBL       0.0266
     22 H5        -16.2429  -11.5772   -9.7948 H           1 TBL       0.0266
     23 H6        -11.0723  -11.1655   -9.4873 H           1 TBL       0.0608
     24 H7         -9.3203   -9.5145   -9.3400 H           1 TBL       0.0542
     25 H8         -9.6098   -9.5463   -5.1420 H           1 TBL       0.0542
     26 H9        -11.4030  -11.1616   -5.2773 H           1 TBL       0.0608
     27 H10        -7.8055   -6.5163   -6.7274 H           1 TBL       0.0577
     28 H11        -8.7712   -7.3343   -5.4895 H           1 TBL       0.0577
     29 H12        -9.5389   -6.7415   -6.9878 H           1 TBL       0.0577
@<TRIPOS>BOND
     1     1     2   2
     2     2     3   2
     3     2     4  am
     4     2    10   1
     5     4     5   1
     6     5     6   1
     7     5     7   1
     8     7     8  ar
     9     7     9  ar
    10    10    11  ar
    11    10    15  ar
    12    11    12  ar
    13    12    13  ar
    14    13    14  ar
    15    13    16   1
    16    14    15  ar
    17    16    17   1
    18     4    18   1
    19     5    19   1
    20     6    20   1
    21     6    21   1
    22     6    22   1
    23    11    23   1
    24    12    24   1
    25    14    25   1
    26    15    26   1
    27    17    27   1
    28    17    28   1
    29    17    29   1
@<TRIPOS>SUBSTRUCTURE
     1  TBL      5

