@<TRIPOS>MOLECULE
3ehy_ligand_017
    29    29
SMALL
GAST_HUCK
****
This file was generated by PARSER (from files_GN.cpp)

@<TRIPOS>ATOM
      1 O4         -6.5579   -7.2311  -11.2012 O.2         1 TBL      -0.1516
      2 S1         -6.9922   -7.5865   -9.7141 S.o2        1 TBL       0.0650
      3 O3         -6.6153   -9.1067   -9.4394 O.2         1 TBL      -0.1516
      4 N1         -8.6621   -7.4239   -9.5172 N.am        1 TBL      -0.2329
      5 C2         -9.5767   -8.5086   -9.6948 C.3         1 TBL       0.0869
      6 C10        -9.4787   -9.1546  -11.1047 C.3         1 TBL      -0.0335
      7 C1        -10.9485   -8.0261   -9.4342 C.2         1 TBL       0.0561
      8 O2        -11.6106   -8.4096   -8.3198 O.co2       1 TBL      -0.5670
      9 O1        -11.6172   -7.2997  -10.3566 O.co2       1 TBL      -0.5670
     10 C3         -6.0821   -6.7327   -8.4976 C.ar        1 TBL       0.0970
     11 C4         -4.9895   -5.9116   -8.8510 C.ar        1 TBL      -0.0441
     12 C5         -4.2254   -5.2751   -7.8542 C.ar        1 TBL      -0.0313
     13 C6         -4.5386   -5.4605   -6.4940 C.ar        1 TBL       0.0908
     14 C8         -5.6443   -6.2610   -6.1394 C.ar        1 TBL      -0.0313
     15 C9         -6.4069   -6.8997   -7.1342 C.ar        1 TBL      -0.0441
     16 O5         -3.7984   -4.8373   -5.5263 O.3         1 TBL      -0.3212
     17 C7         -2.9012   -5.7359   -4.8480 C.3         1 TBL       0.0594
     18 H1         -8.9691   -6.6203   -9.0585 H           1 TBL       0.1696
     19 H2         -9.3444   -9.2735   -8.9458 H           1 TBL       0.0677
     20 H3        -10.1927   -9.9777  -11.2047 H           1 TBL       0.0266
     21 H4         -8.4774   -9.5590  -11.2719 H           1 TBL       0.0266
     22 H5         -9.6822   -8.4101  -11.8805 H           1 TBL       0.0266
     23 H6         -4.7394   -5.7786   -9.8345 H           1 TBL       0.0608
     24 H7         -3.4387   -4.6832   -8.1236 H           1 TBL       0.0542
     25 H8         -5.8835   -6.3876   -5.1545 H           1 TBL       0.0542
     26 H9         -7.1914   -7.4969   -6.8501 H           1 TBL       0.0608
     27 H10        -2.3692   -5.1748   -4.0811 H           1 TBL       0.0577
     28 H11        -2.1620   -6.1553   -5.5395 H           1 TBL       0.0577
     29 H12        -3.4449   -6.5528   -4.3580 H           1 TBL       0.0577
@<TRIPOS>BOND
     1     1     2   2
     2     2     3   2
     3     2     4  am
     4     2    10   1
     5     4     5   1
     6     5     6   1
     7     5     7   1
     8     7     8  ar
     9     7     9  ar
    10    10    11  ar
    11    10    15  ar
    12    11    12  ar
    13    12    13  ar
    14    13    14  ar
    15    13    16   1
    16    14    15  ar
    17    16    17   1
    18     4    18   1
    19     5    19   1
    20     6    20   1
    21     6    21   1
    22     6    22   1
    23    11    23   1
    24    12    24   1
    25    14    25   1
    26    15    26   1
    27    17    27   1
    28    17    28   1
    29    17    29   1
@<TRIPOS>SUBSTRUCTURE
     1  TBL      5

