@<TRIPOS>MOLECULE
3ehy_ligand_023
    29    29
SMALL
GAST_HUCK
****
This file was generated by PARSER (from files_GN.cpp)

@<TRIPOS>ATOM
      1 O4         -0.0788  -13.4104   -9.3797 O.2         1 TBL      -0.1516
      2 S1         -0.8204  -14.0989   -8.1480 S.o2        1 TBL       0.0650
      3 O3          0.2554  -15.1112   -7.5572 O.2         1 TBL      -0.1516
      4 N1         -2.1061  -14.9680   -8.8026 N.am        1 TBL      -0.2329
      5 C2         -2.9480  -15.8444   -8.0443 C.3         1 TBL       0.0869
      6 C10        -2.7643  -17.3077   -8.5044 C.3         1 TBL      -0.0335
      7 C1         -4.3510  -15.4070   -8.1967 C.2         1 TBL       0.0561
      8 O2         -5.1628  -15.3037   -7.1232 O.co2       1 TBL      -0.5670
      9 O1         -4.8415  -15.0396   -9.4041 O.co2       1 TBL      -0.5670
     10 C3         -1.2107  -12.8704   -6.9699 C.ar        1 TBL       0.0970
     11 C4         -2.4347  -12.9128   -6.2597 C.ar        1 TBL      -0.0441
     12 C5         -2.7115  -11.9600   -5.2631 C.ar        1 TBL      -0.0313
     13 C6         -1.7766  -10.9493   -4.9688 C.ar        1 TBL       0.0908
     14 C8         -0.5798  -10.8783   -5.7074 C.ar        1 TBL      -0.0313
     15 C9         -0.2924  -11.8423   -6.6837 C.ar        1 TBL      -0.0441
     16 O5         -2.0884  -10.0224   -4.0052 O.3         1 TBL      -0.3212
     17 C7         -1.2262  -10.0808   -2.8488 C.3         1 TBL       0.0594
     18 H1         -2.2260  -14.9435   -9.7567 H           1 TBL       0.1696
     19 H2         -2.6854  -15.8028   -6.9791 H           1 TBL       0.0677
     20 H3         -3.4145  -17.9704   -7.9224 H           1 TBL       0.0266
     21 H4         -1.7302  -17.6253   -8.3443 H           1 TBL       0.0266
     22 H5         -3.0055  -17.4200   -9.5612 H           1 TBL       0.0266
     23 H6         -3.1265  -13.6284   -6.4544 H           1 TBL       0.0608
     24 H7         -3.5951  -12.0067   -4.7532 H           1 TBL       0.0542
     25 H8          0.0900  -10.1257   -5.5205 H           1 TBL       0.0542
     26 H9          0.5987  -11.7941   -7.1886 H           1 TBL       0.0608
     27 H10        -1.6117   -9.3846   -2.1034 H           1 TBL       0.0577
     28 H11        -0.2079   -9.7813   -3.1003 H           1 TBL       0.0577
     29 H12        -1.2153  -11.0799   -2.4071 H           1 TBL       0.0577
@<TRIPOS>BOND
     1     1     2   2
     2     2     3   2
     3     2     4  am
     4     2    10   1
     5     4     5   1
     6     5     6   1
     7     5     7   1
     8     7     8  ar
     9     7     9  ar
    10    10    11  ar
    11    10    15  ar
    12    11    12  ar
    13    12    13  ar
    14    13    14  ar
    15    13    16   1
    16    14    15  ar
    17    16    17   1
    18     4    18   1
    19     5    19   1
    20     6    20   1
    21     6    21   1
    22     6    22   1
    23    11    23   1
    24    12    24   1
    25    14    25   1
    26    15    26   1
    27    17    27   1
    28    17    28   1
    29    17    29   1
@<TRIPOS>SUBSTRUCTURE
     1  TBL      5

