@<TRIPOS>MOLECULE
3ehy_ligand_007
    29    29
SMALL
GAST_HUCK
****
This file was generated by PARSER (from files_GN.cpp)

@<TRIPOS>ATOM
      1 O4         -6.7675   -6.1987   -9.4397 O.2         1 TBL      -0.1516
      2 S1         -6.6694   -7.0658   -8.1077 S.o2        1 TBL       0.0650
      3 O3         -6.7025   -8.5886   -8.5573 O.2         1 TBL      -0.1516
      4 N1         -8.0189   -6.7281   -7.1383 N.am        1 TBL      -0.2329
      5 C2         -9.3166   -7.3420   -7.2093 C.3         1 TBL       0.0869
      6 C10        -9.3785   -8.5449   -6.2318 C.3         1 TBL      -0.0335
      7 C1         -9.8310   -7.7217   -8.5517 C.2         1 TBL       0.0561
      8 O2        -11.0766   -8.2466   -8.6683 O.co2       1 TBL      -0.5670
      9 O1         -9.1817   -7.4022   -9.7004 O.co2       1 TBL      -0.5670
     10 C3         -5.0752   -6.8272   -7.4310 C.ar        1 TBL       0.0970
     11 C4         -3.9572   -6.9514   -8.2865 C.ar        1 TBL      -0.0441
     12 C5         -2.6563   -6.7850   -7.7906 C.ar        1 TBL      -0.0313
     13 C6         -2.4481   -6.4687   -6.4275 C.ar        1 TBL       0.0908
     14 C8         -3.5592   -6.3580   -5.5673 C.ar        1 TBL      -0.0313
     15 C9         -4.8664   -6.5248   -6.0665 C.ar        1 TBL      -0.0441
     16 O5         -1.1790   -6.3326   -5.9208 O.3         1 TBL      -0.3212
     17 C7         -0.5015   -5.1398   -6.3593 C.3         1 TBL       0.0594
     18 H1         -7.8442   -6.2000   -6.3398 H           1 TBL       0.1696
     19 H2        -10.0070   -6.5922   -6.8277 H           1 TBL       0.0677
     20 H3        -10.4055   -8.9284   -6.1603 H           1 TBL       0.0266
     21 H4         -9.0703   -8.2207   -5.2305 H           1 TBL       0.0266
     22 H5         -8.7204   -9.3596   -6.5683 H           1 TBL       0.0266
     23 H6         -4.0835   -7.1653   -9.2749 H           1 TBL       0.0608
     24 H7         -1.8551   -6.8779   -8.4196 H           1 TBL       0.0542
     25 H8         -3.4143   -6.1437   -4.5809 H           1 TBL       0.0542
     26 H9         -5.6619   -6.4298   -5.4260 H           1 TBL       0.0608
     27 H10         0.4239   -5.0524   -5.7937 H           1 TBL       0.0577
     28 H11        -1.0975   -4.2446   -6.1763 H           1 TBL       0.0577
     29 H12        -0.2494   -5.2019   -7.4194 H           1 TBL       0.0577
@<TRIPOS>BOND
     1     1     2   2
     2     2     3   2
     3     2     4  am
     4     2    10   1
     5     4     5   1
     6     5     6   1
     7     5     7   1
     8     7     8  ar
     9     7     9  ar
    10    10    11  ar
    11    10    15  ar
    12    11    12  ar
    13    12    13  ar
    14    13    14  ar
    15    13    16   1
    16    14    15  ar
    17    16    17   1
    18     4    18   1
    19     5    19   1
    20     6    20   1
    21     6    21   1
    22     6    22   1
    23    11    23   1
    24    12    24   1
    25    14    25   1
    26    15    26   1
    27    17    27   1
    28    17    28   1
    29    17    29   1
@<TRIPOS>SUBSTRUCTURE
     1  TBL      5

