@<TRIPOS>MOLECULE
3ehy_ligand_014
    29    29
SMALL
GAST_HUCK
****
This file was generated by PARSER (from files_GN.cpp)

@<TRIPOS>ATOM
      1 O4         -6.4009   -8.5561   -8.0971 O.2         1 TBL      -0.1516
      2 S1         -6.3865   -7.0463   -7.5948 S.o2        1 TBL       0.0650
      3 O3         -7.5763   -7.0197   -6.5393 O.2         1 TBL      -0.1516
      4 N1         -6.8207   -5.9934   -8.8399 N.am        1 TBL      -0.2329
      5 C2         -6.5427   -6.1770  -10.2323 C.3         1 TBL       0.0869
      6 C10        -7.4251   -7.2963  -10.8503 C.3         1 TBL      -0.0335
      7 C1         -5.0924   -6.3344  -10.4847 C.2         1 TBL       0.0561
      8 O2         -4.2245   -5.3918  -10.0541 O.co2       1 TBL      -0.5670
      9 O1         -4.5757   -7.4200  -11.1032 O.co2       1 TBL      -0.5670
     10 C3         -4.8664   -6.6327   -6.8509 C.ar        1 TBL       0.0970
     11 C4         -4.8217   -5.8280   -5.6915 C.ar        1 TBL      -0.0441
     12 C5         -3.5848   -5.4762   -5.1183 C.ar        1 TBL      -0.0313
     13 C6         -2.3775   -5.9190   -5.6976 C.ar        1 TBL       0.0908
     14 C8         -2.4255   -6.7376   -6.8453 C.ar        1 TBL      -0.0313
     15 C9         -3.6587   -7.0783   -7.4264 C.ar        1 TBL      -0.0441
     16 O5         -1.1888   -5.6179   -5.0865 O.3         1 TBL      -0.3212
     17 C7         -0.2797   -4.8760   -5.9204 C.3         1 TBL       0.0594
     18 H1         -7.2649   -5.1720   -8.5726 H           1 TBL       0.1696
     19 H2         -6.8325   -5.2475  -10.7268 H           1 TBL       0.0677
     20 H3         -7.3343   -7.2786  -11.9386 H           1 TBL       0.0266
     21 H4         -8.4757   -7.1456  -10.5891 H           1 TBL       0.0266
     22 H5         -7.1246   -8.2838  -10.4957 H           1 TBL       0.0266
     23 H6         -5.6836   -5.4891   -5.2600 H           1 TBL       0.0608
     24 H7         -3.5613   -4.8949   -4.2764 H           1 TBL       0.0542
     25 H8         -1.5609   -7.0795   -7.2673 H           1 TBL       0.0542
     26 H9         -3.6669   -7.6506   -8.2729 H           1 TBL       0.0608
     27 H10         0.6035   -4.6379   -5.3314 H           1 TBL       0.0577
     28 H11        -0.7232   -3.9379   -6.2648 H           1 TBL       0.0577
     29 H12         0.0420   -5.4634   -6.7835 H           1 TBL       0.0577
@<TRIPOS>BOND
     1     1     2   2
     2     2     3   2
     3     2     4  am
     4     2    10   1
     5     4     5   1
     6     5     6   1
     7     5     7   1
     8     7     8  ar
     9     7     9  ar
    10    10    11  ar
    11    10    15  ar
    12    11    12  ar
    13    12    13  ar
    14    13    14  ar
    15    13    16   1
    16    14    15  ar
    17    16    17   1
    18     4    18   1
    19     5    19   1
    20     6    20   1
    21     6    21   1
    22     6    22   1
    23    11    23   1
    24    12    24   1
    25    14    25   1
    26    15    26   1
    27    17    27   1
    28    17    28   1
    29    17    29   1
@<TRIPOS>SUBSTRUCTURE
     1  TBL      5

