@<TRIPOS>MOLECULE
3ehy_ligand_027
    29    29
SMALL
GAST_HUCK
****
This file was generated by PARSER (from files_GN.cpp)

@<TRIPOS>ATOM
      1 O4        -13.8484  -12.0940   -8.2498 O.2         1 TBL      -0.1516
      2 S1        -12.7009  -12.4856   -7.2215 S.o2        1 TBL       0.0650
      3 O3        -12.0547  -13.8348   -7.7618 O.2         1 TBL      -0.1516
      4 N1        -13.3719  -12.7291   -5.6914 N.am        1 TBL      -0.2329
      5 C2        -13.6394  -14.0118   -5.1152 C.3         1 TBL       0.0869
      6 C10       -14.1973  -13.8282   -3.6861 C.3         1 TBL      -0.0335
      7 C1        -12.4492  -14.8945   -5.0671 C.2         1 TBL       0.0561
      8 O2        -12.5625  -16.2038   -5.3774 O.co2       1 TBL      -0.5670
      9 O1        -11.2056  -14.3800   -4.9102 O.co2       1 TBL      -0.5670
     10 C3        -11.4241  -11.2959   -7.2252 C.ar        1 TBL       0.0970
     11 C4        -10.8612  -10.8635   -8.4449 C.ar        1 TBL      -0.0441
     12 C5         -9.8447   -9.8906   -8.4518 C.ar        1 TBL      -0.0313
     13 C6         -9.3703   -9.3370   -7.2466 C.ar        1 TBL       0.0908
     14 C8         -9.9115   -9.7987   -6.0246 C.ar        1 TBL      -0.0313
     15 C9        -10.9384  -10.7590   -6.0147 C.ar        1 TBL      -0.0441
     16 O5         -8.3552   -8.4186   -7.2939 O.3         1 TBL      -0.3212
     17 C7         -8.6314   -7.1577   -6.6514 C.3         1 TBL       0.0594
     18 H1        -13.7525  -11.9502   -5.2537 H           1 TBL       0.1696
     19 H2        -14.4160  -14.4897   -5.7203 H           1 TBL       0.0677
     20 H3        -14.4588  -14.7951   -3.2531 H           1 TBL       0.0266
     21 H4        -15.0954  -13.2109   -3.7097 H           1 TBL       0.0266
     22 H5        -13.4571  -13.3430   -3.0460 H           1 TBL       0.0266
     23 H6        -11.1844  -11.2555   -9.3319 H           1 TBL       0.0608
     24 H7         -9.4425   -9.5878   -9.3409 H           1 TBL       0.0542
     25 H8         -9.5618   -9.4366   -5.1346 H           1 TBL       0.0542
     26 H9        -11.3207  -11.0638   -5.1112 H           1 TBL       0.0608
     27 H10        -7.7998   -6.4819   -6.8489 H           1 TBL       0.0577
     28 H11        -8.7113   -7.2741   -5.5689 H           1 TBL       0.0577
     29 H12        -9.5496   -6.7029   -7.0334 H           1 TBL       0.0577
@<TRIPOS>BOND
     1     1     2   2
     2     2     3   2
     3     2     4  am
     4     2    10   1
     5     4     5   1
     6     5     6   1
     7     5     7   1
     8     7     8  ar
     9     7     9  ar
    10    10    11  ar
    11    10    15  ar
    12    11    12  ar
    13    12    13  ar
    14    13    14  ar
    15    13    16   1
    16    14    15  ar
    17    16    17   1
    18     4    18   1
    19     5    19   1
    20     6    20   1
    21     6    21   1
    22     6    22   1
    23    11    23   1
    24    12    24   1
    25    14    25   1
    26    15    26   1
    27    17    27   1
    28    17    28   1
    29    17    29   1
@<TRIPOS>SUBSTRUCTURE
     1  TBL      5

