@<TRIPOS>MOLECULE
3ehy_ligand_010
    29    29
SMALL
GAST_HUCK
****
This file was generated by PARSER (from files_GN.cpp)

@<TRIPOS>ATOM
      1 O4         -2.4088   -0.6826   -4.4201 O.2         1 TBL      -0.1516
      2 S1         -0.8382   -0.8403   -4.6143 S.o2        1 TBL       0.0650
      3 O3         -0.3585    0.3758   -5.5188 O.2         1 TBL      -0.1516
      4 N1         -0.5375   -2.2806   -5.4414 N.am        1 TBL      -0.2329
      5 C2         -0.7973   -3.5591   -4.8513 C.3         1 TBL       0.0869
      6 C10         0.1395   -4.6151   -5.4911 C.3         1 TBL      -0.0335
      7 C1         -2.2377   -3.8905   -4.9959 C.2         1 TBL       0.0561
      8 O2         -3.1597   -2.9288   -4.7802 O.co2       1 TBL      -0.5670
      9 O1         -2.6806   -5.1757   -5.0635 O.co2       1 TBL      -0.5670
     10 C3          0.0587   -0.7299   -3.1243 C.ar        1 TBL       0.0970
     11 C4         -0.5356   -0.1908   -1.9619 C.ar        1 TBL      -0.0441
     12 C5          0.1848   -0.1328   -0.7551 C.ar        1 TBL      -0.0313
     13 C6          1.5043   -0.6271   -0.6904 C.ar        1 TBL       0.0908
     14 C8          2.1105   -1.1407   -1.8565 C.ar        1 TBL      -0.0313
     15 C9          1.3908   -1.1944   -3.0638 C.ar        1 TBL      -0.0441
     16 O5          2.2054   -0.5625    0.4846 O.3         1 TBL      -0.3212
     17 C7          2.2912   -1.8305    1.1568 C.3         1 TBL       0.0594
     18 H1         -0.4624   -2.2314   -6.4090 H           1 TBL       0.1696
     19 H2         -0.5709   -3.5322   -3.7777 H           1 TBL       0.0677
     20 H3         -0.0135   -5.5916   -5.0226 H           1 TBL       0.0266
     21 H4          1.1825   -4.3326   -5.3386 H           1 TBL       0.0266
     22 H5         -0.0532   -4.7040   -6.5658 H           1 TBL       0.0266
     23 H6         -1.4969    0.1609   -1.9857 H           1 TBL       0.0608
     24 H7         -0.2554    0.2585    0.0791 H           1 TBL       0.0542
     25 H8          3.0738   -1.4761   -1.8229 H           1 TBL       0.0542
     26 H9          1.8422   -1.5825   -3.8955 H           1 TBL       0.0608
     27 H10         2.8637   -1.6858    2.0744 H           1 TBL       0.0577
     28 H11         2.8093   -2.5737    0.5455 H           1 TBL       0.0577
     29 H12         1.3009   -2.2082    1.4285 H           1 TBL       0.0577
@<TRIPOS>BOND
     1     1     2   2
     2     2     3   2
     3     2     4  am
     4     2    10   1
     5     4     5   1
     6     5     6   1
     7     5     7   1
     8     7     8  ar
     9     7     9  ar
    10    10    11  ar
    11    10    15  ar
    12    11    12  ar
    13    12    13  ar
    14    13    14  ar
    15    13    16   1
    16    14    15  ar
    17    16    17   1
    18     4    18   1
    19     5    19   1
    20     6    20   1
    21     6    21   1
    22     6    22   1
    23    11    23   1
    24    12    24   1
    25    14    25   1
    26    15    26   1
    27    17    27   1
    28    17    28   1
    29    17    29   1
@<TRIPOS>SUBSTRUCTURE
     1  TBL      5

