@<TRIPOS>MOLECULE
3ehy_ligand_024
    29    29
SMALL
GAST_HUCK
****
This file was generated by PARSER (from files_GN.cpp)

@<TRIPOS>ATOM
      1 O4          0.3521    1.3492   -4.9714 O.2         1 TBL      -0.1516
      2 S1         -0.3781    0.6007   -3.7713 S.o2        1 TBL       0.0650
      3 O3          0.6780    0.7491   -2.5897 O.2         1 TBL      -0.1516
      4 N1         -0.4788   -1.0048   -4.2751 N.am        1 TBL      -0.2329
      5 C2         -0.4477   -2.1281   -3.3904 C.3         1 TBL       0.0869
      6 C10         0.3633   -3.2724   -4.0454 C.3         1 TBL      -0.0335
      7 C1         -1.8090   -2.5951   -3.0626 C.2         1 TBL       0.0561
      8 O2         -2.0372   -3.2331   -1.8919 O.co2       1 TBL      -0.5670
      9 O1         -2.8749   -2.2902   -3.8377 O.co2       1 TBL      -0.5670
     10 C3         -1.8590    1.4274   -3.3605 C.ar        1 TBL       0.0970
     11 C4         -2.1362    2.7101   -3.8771 C.ar        1 TBL      -0.0441
     12 C5         -3.3389    3.3688   -3.5573 C.ar        1 TBL      -0.0313
     13 C6         -4.2758    2.7619   -2.6957 C.ar        1 TBL       0.0908
     14 C8         -3.9988    1.4819   -2.1695 C.ar        1 TBL      -0.0313
     15 C9         -2.7932    0.8261   -2.4859 C.ar        1 TBL      -0.0441
     16 O5         -5.4942    3.3323   -2.4354 O.3         1 TBL      -0.3212
     17 C7         -5.4609    4.4719   -1.5587 C.3         1 TBL       0.0594
     18 H1         -0.7112   -1.1716   -5.2035 H           1 TBL       0.1696
     19 H2          0.0567   -1.8542   -2.4594 H           1 TBL       0.0677
     20 H3          0.4229   -4.1338   -3.3751 H           1 TBL       0.0266
     21 H4          1.3800   -2.9385   -4.2613 H           1 TBL       0.0266
     22 H5         -0.1057   -3.5862   -4.9817 H           1 TBL       0.0266
     23 H6         -1.4659    3.1826   -4.4915 H           1 TBL       0.0608
     24 H7         -3.5377    4.2871   -3.9643 H           1 TBL       0.0542
     25 H8         -4.6771    1.0216   -1.5589 H           1 TBL       0.0542
     26 H9         -2.6008   -0.0852   -2.0695 H           1 TBL       0.0608
     27 H10        -6.4904    4.7704   -1.3544 H           1 TBL       0.0577
     28 H11        -4.9494    5.3136   -2.0310 H           1 TBL       0.0577
     29 H12        -4.9821    4.2385   -0.6072 H           1 TBL       0.0577
@<TRIPOS>BOND
     1     1     2   2
     2     2     3   2
     3     2     4  am
     4     2    10   1
     5     4     5   1
     6     5     6   1
     7     5     7   1
     8     7     8  ar
     9     7     9  ar
    10    10    11  ar
    11    10    15  ar
    12    11    12  ar
    13    12    13  ar
    14    13    14  ar
    15    13    16   1
    16    14    15  ar
    17    16    17   1
    18     4    18   1
    19     5    19   1
    20     6    20   1
    21     6    21   1
    22     6    22   1
    23    11    23   1
    24    12    24   1
    25    14    25   1
    26    15    26   1
    27    17    27   1
    28    17    28   1
    29    17    29   1
@<TRIPOS>SUBSTRUCTURE
     1  TBL      5

