@<TRIPOS>MOLECULE
3ejr_ligand_003
    55    57
SMALL
GAST_HUCK
****
This file was generated by PARSER (from files_GN.cpp)

@<TRIPOS>ATOM
      1 O10        26.1535   66.7035    7.9582 O.2         1 HN4      -0.3651
      2 C10        26.8125   66.4770    8.9660 C.2         1 HN4       0.1575
      3 C11        26.1542   65.9262   10.0685 C.ar        1 HN4       0.0598
      4 C12        25.1433   64.9561    9.8885 C.ar        1 HN4      -0.0155
      5 C13        24.4587   64.4072   10.9863 C.ar        1 HN4      -0.0354
      6 C14        24.7377   64.7901   12.3249 C.ar        1 HN4      -0.0449
      7 C17        23.9542   64.1861   13.4844 C.3         1 HN4      -0.0433
      8 C18        24.4377   64.6392   14.9070 C.3         1 HN4      -0.0831
      9 C19        22.4523   64.6077   13.3576 C.3         1 HN4      -0.0831
     10 C20        24.0630   62.6202   13.4599 C.3         1 HN4      -0.0831
     11 C15        25.7496   65.7758   12.4872 C.ar        1 HN4      -0.0354
     12 C16        26.4400   66.3301   11.3934 C.ar        1 HN4      -0.0155
     13 C9         28.2526   66.7186    8.8915 C.3         1 HN4       0.0697
     14 C5         29.0634   65.5636    8.2132 C.3         1 HN4      -0.0046
     15 N4         30.5583   65.6687    8.2952 N.4         1 HN4       0.2468
     16 C3         31.2361   65.5493    9.6064 C.3         1 HN4      -0.0017
     17 C2         32.5513   66.3594    9.4945 C.3         1 HN4       0.1259
     18 O2         33.6884   65.5952    9.8973 O.3         1 HN4      -0.3837
     19 C1         32.6352   66.8321    8.0281 C.3         1 HN4       0.1307
     20 O1         33.4645   65.9639    7.2511 O.3         1 HN4      -0.3833
     21 C8A        31.1522   66.8300    7.5845 C.3         1 HN4       0.0353
     22 C8         30.8630   66.7060    6.0585 C.3         1 HN4       0.1004
     23 O8         31.2902   67.8764    5.3680 O.3         1 HN4      -0.3861
     24 C7         29.3440   66.4942    5.8044 C.3         1 HN4      -0.0162
     25 C6         28.7538   65.3614    6.6926 C.3         1 HN4      -0.0050
     26 H1         24.9031   64.6305    8.9463 H           1 HN4       0.0743
     27 H2         23.7348   63.7193   10.7851 H           1 HN4       0.0855
     28 H3         23.8679   64.1462   15.6978 H           1 HN4       0.0140
     29 H4         24.3169   65.7166   15.0441 H           1 HN4       0.0140
     30 H5         25.4939   64.3862   15.0524 H           1 HN4       0.0140
     31 H6         22.0158   64.2566   12.4221 H           1 HN4       0.0140
     32 H7         22.3587   65.6956   13.3889 H           1 HN4       0.0140
     33 H8         21.8579   64.1914   14.1751 H           1 HN4       0.0140
     34 H9         25.1104   62.3116   13.5203 H           1 HN4       0.0140
     35 H10        23.6370   62.1891   12.5585 H           1 HN4       0.0140
     36 H11        23.5296   62.1729   14.3041 H           1 HN4       0.0140
     37 H12        25.9975   66.1294   13.4091 H           1 HN4       0.0855
     38 H13        27.1234   67.0645   11.5813 H           1 HN4       0.0743
     39 H14        28.6472   66.8656    9.8930 H           1 HN4       0.0545
     40 H15        28.4115   67.6613    8.3704 H           1 HN4       0.0545
     41 H16        28.7892   64.6360    8.7288 H           1 HN4       0.0877
     42 H17        30.8759   64.8370    7.7837 H           1 HN4       0.2043
     43 H18        31.4441   64.4918    9.7834 H           1 HN4       0.0841
     44 H19        30.6390   65.9251   10.4363 H           1 HN4       0.0841
     45 H20        32.4900   67.2370   10.1455 H           1 HN4       0.0675
     46 H21        33.5147   65.3541   10.8323 H           1 HN4       0.2101
     47 H22        33.0530   67.8415    7.9762 H           1 HN4       0.0679
     48 H23        33.7493   66.5018    6.4817 H           1 HN4       0.2102
     49 H24        30.7066   67.7626    7.9482 H           1 HN4       0.0904
     50 H25        31.4021   65.8466    5.6504 H           1 HN4       0.0651
     51 H26        32.2706   67.8881    5.4253 H           1 HN4       0.2100
     52 H27        29.1923   66.2396    4.7525 H           1 HN4       0.0294
     53 H28        28.8038   67.4240    5.9979 H           1 HN4       0.0294
     54 H29        27.6800   65.2756    6.5189 H           1 HN4       0.0322
     55 H30        29.1907   64.4109    6.3745 H           1 HN4       0.0322
@<TRIPOS>BOND
     1     1     2   2
     2     2     3   1
     3     2    13   1
     4     3     4  ar
     5     3    12  ar
     6     4     5  ar
     7     5     6  ar
     8     6     7   1
     9     6    11  ar
    10     7     8   1
    11     7     9   1
    12     7    10   1
    13    11    12  ar
    14    13    14   1
    15    14    15   1
    16    14    25   1
    17    15    16   1
    18    15    21   1
    19    16    17   1
    20    17    18   1
    21    17    19   1
    22    19    20   1
    23    19    21   1
    24    21    22   1
    25    22    23   1
    26    22    24   1
    27    24    25   1
    28     4    26   1
    29     5    27   1
    30     8    28   1
    31     8    29   1
    32     8    30   1
    33     9    31   1
    34     9    32   1
    35     9    33   1
    36    10    34   1
    37    10    35   1
    38    10    36   1
    39    11    37   1
    40    12    38   1
    41    13    39   1
    42    13    40   1
    43    14    41   1
    44    15    42   1
    45    16    43   1
    46    16    44   1
    47    17    45   1
    48    18    46   1
    49    19    47   1
    50    20    48   1
    51    21    49   1
    52    22    50   1
    53    23    51   1
    54    24    52   1
    55    24    53   1
    56    25    54   1
    57    25    55   1
@<TRIPOS>SUBSTRUCTURE
     1  HN4      2

