@<TRIPOS>MOLECULE
3ejr_ligand_009
    55    57
SMALL
GAST_HUCK
****
This file was generated by PARSER (from files_GN.cpp)

@<TRIPOS>ATOM
      1 O10        26.0198   64.2369    9.4449 O.2         1 HN4      -0.3651
      2 C10        26.5397   65.3466    9.4107 C.2         1 HN4       0.1575
      3 C11        25.8271   66.4053    9.9602 C.ar        1 HN4       0.0598
      4 C12        25.4351   67.5202    9.1867 C.ar        1 HN4      -0.0155
      5 C13        24.8060   68.6261    9.7882 C.ar        1 HN4      -0.0354
      6 C14        24.5679   68.6896   11.1877 C.ar        1 HN4      -0.0449
      7 C17        23.8962   69.9015   11.8228 C.3         1 HN4      -0.0433
      8 C18        24.3050   71.2529   11.1331 C.3         1 HN4      -0.0831
      9 C19        22.3533   69.7076   11.6884 C.3         1 HN4      -0.0831
     10 C20        24.2372   70.0903   13.3444 C.3         1 HN4      -0.0831
     11 C15        24.8960   67.5211   11.9299 C.ar        1 HN4      -0.0354
     12 C16        25.4990   66.3999   11.3330 C.ar        1 HN4      -0.0155
     13 C9         27.8511   65.4593    8.7728 C.3         1 HN4       0.0697
     14 C5         28.6544   66.7971    8.9567 C.3         1 HN4      -0.0046
     15 N4         29.7941   67.0223    8.0096 N.4         1 HN4       0.2468
     16 C3         29.5091   67.1541    6.5622 C.3         1 HN4      -0.0017
     17 C2         30.8469   66.8544    5.8459 C.3         1 HN4       0.1259
     18 O2         31.2301   67.9343    4.9952 O.3         1 HN4      -0.3837
     19 C1         31.8611   66.5615    6.9763 C.3         1 HN4       0.1307
     20 O1         32.6225   67.7307    7.2901 O.3         1 HN4      -0.3833
     21 C8A        30.9588   66.1163    8.1540 C.3         1 HN4       0.0353
     22 C8         31.5604   66.2501    9.5866 C.3         1 HN4       0.1004
     23 O8         32.6135   65.3069    9.8003 O.3         1 HN4      -0.3861
     24 C7         30.4618   66.0746   10.6713 C.3         1 HN4      -0.0162
     25 C6         29.2228   66.9694   10.4009 C.3         1 HN4      -0.0050
     26 H1         25.6133   67.5396    8.1778 H           1 HN4       0.0743
     27 H2         24.5287   69.3969    9.1802 H           1 HN4       0.0855
     28 H3         23.8910   72.1097   11.6757 H           1 HN4       0.0140
     29 H4         23.9273   71.3186   10.1117 H           1 HN4       0.0140
     30 H5         25.3934   71.3589   11.1095 H           1 HN4       0.0140
     31 H6         22.0365   68.7849   12.1813 H           1 HN4       0.0140
     32 H7         22.0529   69.6501   10.6398 H           1 HN4       0.0140
     33 H8         21.8116   70.5376   12.1476 H           1 HN4       0.0140
     34 H9         25.3196   70.1482   13.4867 H           1 HN4       0.0140
     35 H10        23.8464   69.2718   13.9490 H           1 HN4       0.0140
     36 H11        23.7948   71.0072   13.7441 H           1 HN4       0.0140
     37 H12        24.6959   67.4555   12.9262 H           1 HN4       0.0855
     38 H13        25.7423   65.6006   11.9226 H           1 HN4       0.0743
     39 H14        27.6874   65.2587    7.7148 H           1 HN4       0.0545
     40 H15        28.4796   64.6481    9.1503 H           1 HN4       0.0545
     41 H16        27.9682   67.6265    8.7847 H           1 HN4       0.0877
     42 H17        30.1587   67.9423    8.2734 H           1 HN4       0.2043
     43 H18        29.1595   68.1715    6.3645 H           1 HN4       0.0841
     44 H19        28.7459   66.4613    6.2073 H           1 HN4       0.0841
     45 H20        30.7306   65.9618    5.2256 H           1 HN4       0.0675
     46 H21        32.1785   67.7963    4.7955 H           1 HN4       0.2101
     47 H22        32.5508   65.7651    6.6898 H           1 HN4       0.0679
     48 H23        33.3162   67.7893    6.5958 H           1 HN4       0.2102
     49 H24        30.6555   65.0752    7.9898 H           1 HN4       0.0904
     50 H25        31.9871   67.2486    9.7071 H           1 HN4       0.0651
     51 H26        32.1844   64.4973   10.1567 H           1 HN4       0.2100
     52 H27        30.8742   66.3396   11.6450 H           1 HN4       0.0294
     53 H28        30.1556   65.0254   10.7201 H           1 HN4       0.0294
     54 H29        28.4589   66.7487   11.1491 H           1 HN4       0.0322
     55 H30        29.5144   68.0137   10.5386 H           1 HN4       0.0322
@<TRIPOS>BOND
     1     1     2   2
     2     2     3   1
     3     2    13   1
     4     3     4  ar
     5     3    12  ar
     6     4     5  ar
     7     5     6  ar
     8     6     7   1
     9     6    11  ar
    10     7     8   1
    11     7     9   1
    12     7    10   1
    13    11    12  ar
    14    13    14   1
    15    14    15   1
    16    14    25   1
    17    15    16   1
    18    15    21   1
    19    16    17   1
    20    17    18   1
    21    17    19   1
    22    19    20   1
    23    19    21   1
    24    21    22   1
    25    22    23   1
    26    22    24   1
    27    24    25   1
    28     4    26   1
    29     5    27   1
    30     8    28   1
    31     8    29   1
    32     8    30   1
    33     9    31   1
    34     9    32   1
    35     9    33   1
    36    10    34   1
    37    10    35   1
    38    10    36   1
    39    11    37   1
    40    12    38   1
    41    13    39   1
    42    13    40   1
    43    14    41   1
    44    15    42   1
    45    16    43   1
    46    16    44   1
    47    17    45   1
    48    18    46   1
    49    19    47   1
    50    20    48   1
    51    21    49   1
    52    22    50   1
    53    23    51   1
    54    24    52   1
    55    24    53   1
    56    25    54   1
    57    25    55   1
@<TRIPOS>SUBSTRUCTURE
     1  HN4      2

