@<TRIPOS>MOLECULE
3ejr_ligand_019
    55    57
SMALL
GAST_HUCK
****
This file was generated by PARSER (from files_GN.cpp)

@<TRIPOS>ATOM
      1 O10        26.2372   63.8274    9.7251 O.2         1 HN4      -0.3651
      2 C10        26.6172   64.4530   10.7122 C.2         1 HN4       0.1575
      3 C11        25.8021   64.4312   11.8549 C.ar        1 HN4       0.0598
      4 C12        25.0674   63.2761   12.2131 C.ar        1 HN4      -0.0155
      5 C13        24.2561   63.2398   13.3629 C.ar        1 HN4      -0.0354
      6 C14        24.1029   64.3658   14.2133 C.ar        1 HN4      -0.0449
      7 C17        23.1802   64.3814   15.4260 C.3         1 HN4      -0.0433
      8 C18        22.1553   65.5516   15.2698 C.3         1 HN4      -0.0831
      9 C19        22.3355   63.0703   15.6256 C.3         1 HN4      -0.0831
     10 C20        24.0049   64.5776   16.7437 C.3         1 HN4      -0.0831
     11 C15        24.8379   65.5195   13.8437 C.ar        1 HN4      -0.0354
     12 C16        25.6695   65.5541   12.7070 C.ar        1 HN4      -0.0155
     13 C9         28.0058   64.9199   10.6762 C.3         1 HN4       0.0697
     14 C5         28.2389   66.4229   10.2654 C.3         1 HN4      -0.0046
     15 N4         28.4912   66.7354    8.8181 N.4         1 HN4       0.2468
     16 C3         27.4460   66.4435    7.8081 C.3         1 HN4      -0.0017
     17 C2         28.1807   66.3967    6.4440 C.3         1 HN4       0.1259
     18 O2         27.6401   67.3195    5.4953 O.3         1 HN4      -0.3837
     19 C1         29.6647   66.6800    6.7726 C.3         1 HN4       0.1307
     20 O1         29.9805   68.0647    6.5827 O.3         1 HN4      -0.3833
     21 C8A        29.7756   66.2462    8.2512 C.3         1 HN4       0.0353
     22 C8         30.9879   66.8209    9.0355 C.3         1 HN4       0.1004
     23 O8         32.1994   66.2319    8.5631 O.3         1 HN4      -0.3861
     24 C7         30.8132   66.5652   10.5540 C.3         1 HN4      -0.0162
     25 C6         29.4286   67.0585   11.0638 C.3         1 HN4      -0.0050
     26 H1         25.1256   62.4252   11.6476 H           1 HN4       0.0743
     27 H2         23.7725   62.3665   13.5521 H           1 HN4       0.0855
     28 H3         21.4643   65.5845   16.1131 H           1 HN4       0.0140
     29 H4         21.5689   65.4277   14.3562 H           1 HN4       0.0140
     30 H5         22.6552   66.5187   15.2200 H           1 HN4       0.0140
     31 H6         22.9891   62.2008   15.7431 H           1 HN4       0.0140
     32 H7         21.6807   62.8923   14.7664 H           1 HN4       0.0140
     33 H8         21.7042   63.1307   16.5075 H           1 HN4       0.0140
     34 H9         24.5072   65.5442   16.7644 H           1 HN4       0.0140
     35 H10        24.7609   63.7982   16.8417 H           1 HN4       0.0140
     36 H11        23.3568   64.5331   17.6217 H           1 HN4       0.0140
     37 H12        24.7703   66.3724   14.3986 H           1 HN4       0.0855
     38 H13        26.1639   66.4218   12.5072 H           1 HN4       0.0743
     39 H14        28.5902   64.2798   10.0124 H           1 HN4       0.0545
     40 H15        28.4179   64.7357   11.6772 H           1 HN4       0.0545
     41 H16        27.3499   66.9964   10.5475 H           1 HN4       0.0877
     42 H17        28.5712   67.7568    8.7936 H           1 HN4       0.2043
     43 H18        26.6933   67.2401    7.8292 H           1 HN4       0.0841
     44 H19        26.9537   65.4949    7.9890 H           1 HN4       0.0841
     45 H20        28.0903   65.3905    6.0220 H           1 HN4       0.0675
     46 H21        27.7678   68.2033    5.9022 H           1 HN4       0.2101
     47 H22        30.3259   66.0854    6.1353 H           1 HN4       0.0679
     48 H23        29.3681   68.5599    7.1684 H           1 HN4       0.2102
     49 H24        29.8180   65.1504    8.2804 H           1 HN4       0.0904
     50 H25        31.0561   67.8978    8.8757 H           1 HN4       0.0651
     51 H26        32.9182   66.7418    8.9921 H           1 HN4       0.2100
     52 H27        31.6040   67.0930   11.0898 H           1 HN4       0.0294
     53 H28        30.9204   65.4938   10.7627 H           1 HN4       0.0294
     54 H29        29.3393   66.8397   12.1327 H           1 HN4       0.0322
     55 H30        29.3906   68.1484   10.9551 H           1 HN4       0.0322
@<TRIPOS>BOND
     1     1     2   2
     2     2     3   1
     3     2    13   1
     4     3     4  ar
     5     3    12  ar
     6     4     5  ar
     7     5     6  ar
     8     6     7   1
     9     6    11  ar
    10     7     8   1
    11     7     9   1
    12     7    10   1
    13    11    12  ar
    14    13    14   1
    15    14    15   1
    16    14    25   1
    17    15    16   1
    18    15    21   1
    19    16    17   1
    20    17    18   1
    21    17    19   1
    22    19    20   1
    23    19    21   1
    24    21    22   1
    25    22    23   1
    26    22    24   1
    27    24    25   1
    28     4    26   1
    29     5    27   1
    30     8    28   1
    31     8    29   1
    32     8    30   1
    33     9    31   1
    34     9    32   1
    35     9    33   1
    36    10    34   1
    37    10    35   1
    38    10    36   1
    39    11    37   1
    40    12    38   1
    41    13    39   1
    42    13    40   1
    43    14    41   1
    44    15    42   1
    45    16    43   1
    46    16    44   1
    47    17    45   1
    48    18    46   1
    49    19    47   1
    50    20    48   1
    51    21    49   1
    52    22    50   1
    53    23    51   1
    54    24    52   1
    55    24    53   1
    56    25    54   1
    57    25    55   1
@<TRIPOS>SUBSTRUCTURE
     1  HN4      2

