@<TRIPOS>MOLECULE
3ejr_ligand_000
    55    57
SMALL
GAST_HUCK
****
This file was generated by PARSER (from files_GN.cpp)

@<TRIPOS>ATOM
      1 O10        27.7874   65.7342   10.9754 O.2         1 HN4      -0.3651
      2 C10        28.1145   66.7194   10.3276 C.2         1 HN4       0.1575
      3 C11        28.4434   67.8758   11.0193 C.ar        1 HN4       0.0598
      4 C12        29.6287   67.9357   11.7780 C.ar        1 HN4      -0.0155
      5 C13        30.0153   69.1300   12.4071 C.ar        1 HN4      -0.0354
      6 C14        29.2111   70.3014   12.3664 C.ar        1 HN4      -0.0449
      7 C17        29.6872   71.5775   13.0518 C.3         1 HN4      -0.0433
      8 C18        28.6744   72.7731   12.9770 C.3         1 HN4      -0.0831
      9 C19        29.9531   71.2967   14.5678 C.3         1 HN4      -0.0831
     10 C20        31.0156   72.0664   12.3745 C.3         1 HN4      -0.0831
     11 C15        27.9824   70.1945   11.6607 C.ar        1 HN4      -0.0354
     12 C16        27.6150   69.0189   10.9745 C.ar        1 HN4      -0.0155
     13 C9         28.0706   66.6562    8.8739 C.3         1 HN4       0.0697
     14 C5         28.9681   65.5437    8.2209 C.3         1 HN4      -0.0046
     15 N4         30.4674   65.6370    8.3016 N.4         1 HN4       0.2468
     16 C3         31.1853   65.3959    9.5784 C.3         1 HN4      -0.0017
     17 C2         32.3600   66.3971    9.6098 C.3         1 HN4       0.1259
     18 O2         33.5501   65.8264   10.1500 O.3         1 HN4      -0.3837
     19 C1         32.5206   66.8691    8.1485 C.3         1 HN4       0.1307
     20 O1         33.3964   66.0057    7.4194 O.3         1 HN4      -0.3833
     21 C8A        31.0579   66.8301    7.6471 C.3         1 HN4       0.0353
     22 C8         30.8163   66.7181    6.1171 C.3         1 HN4       0.1004
     23 O8         31.2706   67.8964    5.4626 O.3         1 HN4      -0.3861
     24 C7         29.2980   66.5204    5.8295 C.3         1 HN4      -0.0162
     25 C6         28.6640   65.3896    6.6935 C.3         1 HN4      -0.0050
     26 H1         30.2379   67.1166   11.8487 H           1 HN4       0.0743
     27 H2         30.9103   69.1308   12.8999 H           1 HN4       0.0855
     28 H3         29.0773   73.6658   13.4650 H           1 HN4       0.0140
     29 H4         27.7377   72.5164   13.4777 H           1 HN4       0.0140
     30 H5         28.4552   73.0367   11.9402 H           1 HN4       0.0140
     31 H6         30.7403   70.5546   14.7140 H           1 HN4       0.0140
     32 H7         29.0454   70.9240   15.0512 H           1 HN4       0.0140
     33 H8         30.2693   72.2048   15.0876 H           1 HN4       0.0140
     34 H9         30.8659   72.2227   11.3028 H           1 HN4       0.0140
     35 H10        31.8212   71.3408   12.5029 H           1 HN4       0.0140
     36 H11        31.3524   73.0108   12.8117 H           1 HN4       0.0140
     37 H12        27.3289   70.9757   11.6143 H           1 HN4       0.0855
     38 H13        26.7235   68.9980   10.4685 H           1 HN4       0.0743
     39 H14        28.3253   67.6255    8.4436 H           1 HN4       0.0545
     40 H15        27.0309   66.4597    8.6013 H           1 HN4       0.0545
     41 H16        28.6865   64.5990    8.6929 H           1 HN4       0.0877
     42 H17        30.7614   64.8415    7.7305 H           1 HN4       0.2043
     43 H18        31.5727   64.3695    9.5531 H           1 HN4       0.0841
     44 H19        30.5618   65.5090   10.4673 H           1 HN4       0.0841
     45 H20        32.0840   67.2567   10.2283 H           1 HN4       0.0675
     46 H21        33.3260   65.6064   11.0785 H           1 HN4       0.2101
     47 H22        32.9263   67.8852    8.1202 H           1 HN4       0.0679
     48 H23        33.9120   66.5964    6.8238 H           1 HN4       0.2102
     49 H24        30.5726   67.7445    8.0103 H           1 HN4       0.0904
     50 H25        31.3583   65.8612    5.7141 H           1 HN4       0.0651
     51 H26        32.2151   67.7400    5.2291 H           1 HN4       0.2100
     52 H27        29.1592   66.2775    4.7696 H           1 HN4       0.0294
     53 H28        28.7663   67.4575    6.0195 H           1 HN4       0.0294
     54 H29        27.5827   65.3508    6.5202 H           1 HN4       0.0322
     55 H30        29.0721   64.4297    6.3520 H           1 HN4       0.0322
@<TRIPOS>BOND
     1     1     2   2
     2     2     3   1
     3     2    13   1
     4     3     4  ar
     5     3    12  ar
     6     4     5  ar
     7     5     6  ar
     8     6     7   1
     9     6    11  ar
    10     7     8   1
    11     7     9   1
    12     7    10   1
    13    11    12  ar
    14    13    14   1
    15    14    15   1
    16    14    25   1
    17    15    16   1
    18    15    21   1
    19    16    17   1
    20    17    18   1
    21    17    19   1
    22    19    20   1
    23    19    21   1
    24    21    22   1
    25    22    23   1
    26    22    24   1
    27    24    25   1
    28     4    26   1
    29     5    27   1
    30     8    28   1
    31     8    29   1
    32     8    30   1
    33     9    31   1
    34     9    32   1
    35     9    33   1
    36    10    34   1
    37    10    35   1
    38    10    36   1
    39    11    37   1
    40    12    38   1
    41    13    39   1
    42    13    40   1
    43    14    41   1
    44    15    42   1
    45    16    43   1
    46    16    44   1
    47    17    45   1
    48    18    46   1
    49    19    47   1
    50    20    48   1
    51    21    49   1
    52    22    50   1
    53    23    51   1
    54    24    52   1
    55    24    53   1
    56    25    54   1
    57    25    55   1
@<TRIPOS>SUBSTRUCTURE
     1  HN4      2

