@<TRIPOS>MOLECULE
3ejr_ligand_016
    55    57
SMALL
GAST_HUCK
****
This file was generated by PARSER (from files_GN.cpp)

@<TRIPOS>ATOM
      1 O10        26.5881   64.9020    9.4351 O.2         1 HN4      -0.3651
      2 C10        27.1360   65.9937    9.5484 C.2         1 HN4       0.1575
      3 C11        26.8694   66.7364   10.6920 C.ar        1 HN4       0.0598
      4 C12        26.2364   67.9953   10.6267 C.ar        1 HN4      -0.0155
      5 C13        25.9093   68.6878   11.8078 C.ar        1 HN4      -0.0354
      6 C14        26.2294   68.1852   13.0995 C.ar        1 HN4      -0.0449
      7 C17        25.8339   68.9733   14.3446 C.3         1 HN4      -0.0433
      8 C18        24.2729   69.0233   14.4379 C.3         1 HN4      -0.0831
      9 C19        26.3545   68.3684   15.6953 C.3         1 HN4      -0.0831
     10 C20        26.3988   70.4347   14.2717 C.3         1 HN4      -0.0831
     11 C15        26.8885   66.9259   13.1364 C.ar        1 HN4      -0.0354
     12 C16        27.1824   66.2059   11.9613 C.ar        1 HN4      -0.0155
     13 C9         27.9158   66.5068    8.4223 C.3         1 HN4       0.0697
     14 C5         28.9698   65.4836    7.8407 C.3         1 HN4      -0.0046
     15 N4         30.4203   65.7464    8.0983 N.4         1 HN4       0.2468
     16 C3         30.8894   65.7708    9.4982 C.3         1 HN4      -0.0017
     17 C2         32.1823   66.6204    9.4942 C.3         1 HN4       0.1259
     18 O2         33.2740   65.9280   10.0957 O.3         1 HN4      -0.3837
     19 C1         32.4330   67.0071    8.0179 C.3         1 HN4       0.1307
     20 O1         33.3684   66.1216    7.3921 O.3         1 HN4      -0.3833
     21 C8A        31.0136   66.9203    7.4091 C.3         1 HN4       0.0353
     22 C8         30.8903   66.7418    5.8700 C.3         1 HN4       0.1004
     23 O8         31.3195   67.9209    5.1957 O.3         1 HN4      -0.3861
     24 C7         29.4113   66.4566    5.4860 C.3         1 HN4      -0.0162
     25 C6         28.8249   65.2703    6.3012 C.3         1 HN4      -0.0050
     26 H1         25.9691   68.4037    9.7267 H           1 HN4       0.0743
     27 H2         25.4050   69.5721   11.7090 H           1 HN4       0.0855
     28 H3         23.9493   69.5494   15.3384 H           1 HN4       0.0140
     29 H4         23.8595   68.0121   14.4677 H           1 HN4       0.0140
     30 H5         23.8363   69.5412   13.5826 H           1 HN4       0.0140
     31 H6         27.4450   68.2992   15.6946 H           1 HN4       0.0140
     32 H7         25.9431   67.3709   15.8650 H           1 HN4       0.0140
     33 H8         26.0624   68.9898   16.5451 H           1 HN4       0.0140
     34 H9         25.9613   70.9987   13.4466 H           1 HN4       0.0140
     35 H10        27.4834   70.4190   14.1350 H           1 HN4       0.0140
     36 H11        26.1778   70.9912   15.1863 H           1 HN4       0.0140
     37 H12        27.1436   66.4900   14.0229 H           1 HN4       0.0855
     38 H13        27.6411   65.2921   12.0358 H           1 HN4       0.0743
     39 H14        28.4244   67.4291    8.7128 H           1 HN4       0.0545
     40 H15        27.1884   66.7850    7.6544 H           1 HN4       0.0545
     41 H16        28.7803   64.5065    8.2898 H           1 HN4       0.0877
     42 H17        30.8845   64.9272    7.6974 H           1 HN4       0.2043
     43 H18        31.0899   64.7437    9.8162 H           1 HN4       0.0841
     44 H19        30.1504   66.2063   10.1773 H           1 HN4       0.0841
     45 H20        32.0079   67.5300   10.0740 H           1 HN4       0.0675
     46 H21        32.9803   65.7866   11.0201 H           1 HN4       0.2101
     47 H22        32.8285   68.0245    7.9522 H           1 HN4       0.0679
     48 H23        33.7107   66.6074    6.6060 H           1 HN4       0.2102
     49 H24        30.4781   67.8349    7.6866 H           1 HN4       0.0904
     50 H25        31.5087   65.9038    5.5381 H           1 HN4       0.0651
     51 H26        32.2841   67.9931    5.3538 H           1 HN4       0.2100
     52 H27        29.3522   66.2256    4.4199 H           1 HN4       0.0294
     53 H28        28.8085   67.3517    5.6657 H           1 HN4       0.0294
     54 H29        27.7732   65.1220    6.0450 H           1 HN4       0.0322
     55 H30        29.3573   64.3582    6.0150 H           1 HN4       0.0322
@<TRIPOS>BOND
     1     1     2   2
     2     2     3   1
     3     2    13   1
     4     3     4  ar
     5     3    12  ar
     6     4     5  ar
     7     5     6  ar
     8     6     7   1
     9     6    11  ar
    10     7     8   1
    11     7     9   1
    12     7    10   1
    13    11    12  ar
    14    13    14   1
    15    14    15   1
    16    14    25   1
    17    15    16   1
    18    15    21   1
    19    16    17   1
    20    17    18   1
    21    17    19   1
    22    19    20   1
    23    19    21   1
    24    21    22   1
    25    22    23   1
    26    22    24   1
    27    24    25   1
    28     4    26   1
    29     5    27   1
    30     8    28   1
    31     8    29   1
    32     8    30   1
    33     9    31   1
    34     9    32   1
    35     9    33   1
    36    10    34   1
    37    10    35   1
    38    10    36   1
    39    11    37   1
    40    12    38   1
    41    13    39   1
    42    13    40   1
    43    14    41   1
    44    15    42   1
    45    16    43   1
    46    16    44   1
    47    17    45   1
    48    18    46   1
    49    19    47   1
    50    20    48   1
    51    21    49   1
    52    22    50   1
    53    23    51   1
    54    24    52   1
    55    24    53   1
    56    25    54   1
    57    25    55   1
@<TRIPOS>SUBSTRUCTURE
     1  HN4      2

