@<TRIPOS>MOLECULE
3ejr_ligand_005
    55    57
SMALL
GAST_HUCK
****
This file was generated by PARSER (from files_GN.cpp)

@<TRIPOS>ATOM
      1 O10        27.7224   66.8839   11.8691 O.2         1 HN4      -0.3651
      2 C10        28.9259   67.0365   12.0019 C.2         1 HN4       0.1575
      3 C11        29.3875   67.1273   13.3057 C.ar        1 HN4       0.0598
      4 C12        29.6355   68.3798   13.8970 C.ar        1 HN4      -0.0155
      5 C13        29.9963   68.4691   15.2571 C.ar        1 HN4      -0.0354
      6 C14        30.1272   67.3156   16.0761 C.ar        1 HN4      -0.0449
      7 C17        30.4779   67.3644   17.5579 C.3         1 HN4      -0.0433
      8 C18        31.8483   66.6471   17.8006 C.3         1 HN4      -0.0831
      9 C19        30.6114   68.8136   18.1504 C.3         1 HN4      -0.0831
     10 C20        29.3580   66.6476   18.3867 C.3         1 HN4      -0.0831
     11 C15        29.8999   66.0645   15.4430 C.ar        1 HN4      -0.0354
     12 C16        29.5260   65.9634   14.0878 C.ar        1 HN4      -0.0155
     13 C9         29.7531   67.3317   10.8351 C.3         1 HN4       0.0697
     14 C5         30.0331   66.0871    9.9142 C.3         1 HN4      -0.0046
     15 N4         31.1274   66.2399    8.8917 N.4         1 HN4       0.2468
     16 C3         32.5202   66.4653    9.3348 C.3         1 HN4      -0.0017
     17 C2         33.2837   66.9449    8.0748 C.3         1 HN4       0.1259
     18 O2         34.1689   65.9375    7.5919 O.3         1 HN4      -0.3837
     19 C1         32.1986   67.3213    7.0297 C.3         1 HN4       0.1307
     20 O1         32.2176   66.4647    5.8804 O.3         1 HN4      -0.3833
     21 C8A        30.8680   67.2299    7.8177 C.3         1 HN4       0.0353
     22 C8         29.6051   66.8199    7.0056 C.3         1 HN4       0.1004
     23 O8         29.2834   67.8546    6.0744 O.3         1 HN4      -0.3861
     24 C7         28.4005   66.5409    7.9468 C.3         1 HN4      -0.0162
     25 C6         28.7833   65.5857    9.1114 C.3         1 HN4      -0.0050
     26 H1         29.5272   69.2410   13.3540 H           1 HN4       0.0743
     27 H2         30.1490   69.4047   15.6317 H           1 HN4       0.0855
     28 H3         32.1163   66.6625   18.8600 H           1 HN4       0.0140
     29 H4         32.6445   67.1437   17.2411 H           1 HN4       0.0140
     30 H5         31.8198   65.6007   17.4890 H           1 HN4       0.0140
     31 H6         29.6789   69.3709   18.0281 H           1 HN4       0.0140
     32 H7         31.4122   69.3660   17.6525 H           1 HN4       0.0140
     33 H8         30.8433   68.7891   19.2173 H           1 HN4       0.0140
     34 H9         29.2702   65.5940   18.1211 H           1 HN4       0.0140
     35 H10        28.3896   67.1231   18.2116 H           1 HN4       0.0140
     36 H11        29.5708   66.6905   19.4586 H           1 HN4       0.0140
     37 H12        29.9870   65.1961   15.9682 H           1 HN4       0.0855
     38 H13        29.3551   65.0378   13.6872 H           1 HN4       0.0743
     39 H14        30.7028   67.7328   11.1754 H           1 HN4       0.0545
     40 H15        29.2688   68.1284   10.2635 H           1 HN4       0.0545
     41 H16        30.3306   65.2703   10.5807 H           1 HN4       0.0877
     42 H17        31.1568   65.3344    8.4166 H           1 HN4       0.2043
     43 H18        32.9423   65.5382    9.7318 H           1 HN4       0.0841
     44 H19        32.5892   67.2331   10.1059 H           1 HN4       0.0841
     45 H20        33.8909   67.8204    8.3292 H           1 HN4       0.0675
     46 H21        34.6919   66.3866    6.8957 H           1 HN4       0.2101
     47 H22        32.3554   68.3458    6.6742 H           1 HN4       0.0679
     48 H23        32.7898   66.9205    5.2250 H           1 HN4       0.2102
     49 H24        30.6851   68.2105    8.2628 H           1 HN4       0.0904
     50 H25        29.8065   65.9054    6.4417 H           1 HN4       0.0651
     51 H26        28.4740   67.5495    5.6099 H           1 HN4       0.2100
     52 H27        27.5897   66.0937    7.3673 H           1 HN4       0.0294
     53 H28        28.0323   67.4821    8.3584 H           1 HN4       0.0294
     54 H29        27.9174   65.4363    9.7562 H           1 HN4       0.0322
     55 H30        29.0233   64.6071    8.6859 H           1 HN4       0.0322
@<TRIPOS>BOND
     1     1     2   2
     2     2     3   1
     3     2    13   1
     4     3     4  ar
     5     3    12  ar
     6     4     5  ar
     7     5     6  ar
     8     6     7   1
     9     6    11  ar
    10     7     8   1
    11     7     9   1
    12     7    10   1
    13    11    12  ar
    14    13    14   1
    15    14    15   1
    16    14    25   1
    17    15    16   1
    18    15    21   1
    19    16    17   1
    20    17    18   1
    21    17    19   1
    22    19    20   1
    23    19    21   1
    24    21    22   1
    25    22    23   1
    26    22    24   1
    27    24    25   1
    28     4    26   1
    29     5    27   1
    30     8    28   1
    31     8    29   1
    32     8    30   1
    33     9    31   1
    34     9    32   1
    35     9    33   1
    36    10    34   1
    37    10    35   1
    38    10    36   1
    39    11    37   1
    40    12    38   1
    41    13    39   1
    42    13    40   1
    43    14    41   1
    44    15    42   1
    45    16    43   1
    46    16    44   1
    47    17    45   1
    48    18    46   1
    49    19    47   1
    50    20    48   1
    51    21    49   1
    52    22    50   1
    53    23    51   1
    54    24    52   1
    55    24    53   1
    56    25    54   1
    57    25    55   1
@<TRIPOS>SUBSTRUCTURE
     1  HN4      2

