@<TRIPOS>MOLECULE
3ejr_ligand_011
    55    57
SMALL
GAST_HUCK
****
This file was generated by PARSER (from files_GN.cpp)

@<TRIPOS>ATOM
      1 O10        25.1470   69.7698   13.7219 O.2         1 HN4      -0.3651
      2 C10        24.6539   68.6929   13.3936 C.2         1 HN4       0.1575
      3 C11        25.4661   67.5446   13.3786 C.ar        1 HN4       0.0598
      4 C12        24.9425   66.2375   13.5361 C.ar        1 HN4      -0.0155
      5 C13        25.7600   65.1029   13.4204 C.ar        1 HN4      -0.0354
      6 C14        27.1630   65.2023   13.2161 C.ar        1 HN4      -0.0449
      7 C17        28.0255   63.9443   13.1308 C.3         1 HN4      -0.0433
      8 C18        29.5479   64.2214   13.3962 C.3         1 HN4      -0.0831
      9 C19        27.5890   62.8625   14.1847 C.3         1 HN4      -0.0831
     10 C20        27.8775   63.3348   11.6982 C.3         1 HN4      -0.0831
     11 C15        27.6780   66.5185   13.0581 C.ar        1 HN4      -0.0354
     12 C16        26.8581   67.6562   13.1409 C.ar        1 HN4      -0.0155
     13 C9         23.3447   68.7714   12.7458 C.3         1 HN4       0.0697
     14 C5         23.3285   69.3386   11.2795 C.3         1 HN4      -0.0046
     15 N4         22.1496   68.9046   10.4580 N.4         1 HN4       0.2468
     16 C3         20.7858   69.1941   10.9562 C.3         1 HN4      -0.0017
     17 C2         19.8502   68.1757   10.2589 C.3         1 HN4       0.1259
     18 O2         18.7621   68.8043    9.5772 O.3         1 HN4      -0.3837
     19 C1         20.7671   67.3483    9.3289 C.3         1 HN4       0.1307
     20 O1         20.7302   67.8517    7.9922 O.3         1 HN4      -0.3833
     21 C8A        22.1527   67.4897    9.9986 C.3         1 HN4       0.0353
     22 C8         23.4017   67.2197    9.1081 C.3         1 HN4       0.1004
     23 O8         23.4826   65.8410    8.7362 O.3         1 HN4      -0.3861
     24 C7         24.6919   67.6274    9.8652 C.3         1 HN4      -0.0162
     25 C6         24.5971   69.0825   10.3942 C.3         1 HN4      -0.0050
     26 H1         23.9536   66.0869   13.7394 H           1 HN4       0.0743
     27 H2         25.3076   64.1924   13.4955 H           1 HN4       0.0855
     28 H3         30.1172   63.2944   13.4604 H           1 HN4       0.0140
     29 H4         29.6781   64.7569   14.3377 H           1 HN4       0.0140
     30 H5         29.9894   64.8177   12.5970 H           1 HN4       0.0140
     31 H6         26.5995   62.4607   13.9732 H           1 HN4       0.0140
     32 H7         27.5764   63.2889   15.1874 H           1 HN4       0.0140
     33 H8         28.2755   62.0146   14.1875 H           1 HN4       0.0140
     34 H9         28.2190   64.0425   10.9389 H           1 HN4       0.0140
     35 H10        26.8356   63.0857   11.4834 H           1 HN4       0.0140
     36 H11        28.4669   62.4227   11.6030 H           1 HN4       0.0140
     37 H12        28.6653   66.6777   12.8593 H           1 HN4       0.0855
     38 H13        27.2905   68.5689   12.9896 H           1 HN4       0.0743
     39 H14        22.7133   69.4104   13.3657 H           1 HN4       0.0545
     40 H15        22.8535   67.8069   12.7605 H           1 HN4       0.0545
     41 H16        23.2585   70.4291   11.3767 H           1 HN4       0.0877
     42 H17        22.2279   69.4440    9.5950 H           1 HN4       0.2043
     43 H18        20.5199   70.2217   10.6965 H           1 HN4       0.0841
     44 H19        20.7014   69.0803   12.0391 H           1 HN4       0.0841
     45 H20        19.4150   67.5097   11.0120 H           1 HN4       0.0675
     46 H21        19.1750   69.4964    9.0142 H           1 HN4       0.2101
     47 H22        20.4475   66.3047    9.3056 H           1 HN4       0.0679
     48 H23        21.4612   68.5044    7.9208 H           1 HN4       0.2102
     49 H24        22.1864   66.7967   10.8448 H           1 HN4       0.0904
     50 H25        23.3444   67.8146    8.1915 H           1 HN4       0.0651
     51 H26        22.8848   65.7407    7.9609 H           1 HN4       0.2100
     52 H27        25.5479   67.5478    9.1938 H           1 HN4       0.0294
     53 H28        24.8510   66.9403   10.6923 H           1 HN4       0.0294
     54 H29        25.5107   69.3397   10.9341 H           1 HN4       0.0322
     55 H30        24.5573   69.7554    9.5278 H           1 HN4       0.0322
@<TRIPOS>BOND
     1     1     2   2
     2     2     3   1
     3     2    13   1
     4     3     4  ar
     5     3    12  ar
     6     4     5  ar
     7     5     6  ar
     8     6     7   1
     9     6    11  ar
    10     7     8   1
    11     7     9   1
    12     7    10   1
    13    11    12  ar
    14    13    14   1
    15    14    15   1
    16    14    25   1
    17    15    16   1
    18    15    21   1
    19    16    17   1
    20    17    18   1
    21    17    19   1
    22    19    20   1
    23    19    21   1
    24    21    22   1
    25    22    23   1
    26    22    24   1
    27    24    25   1
    28     4    26   1
    29     5    27   1
    30     8    28   1
    31     8    29   1
    32     8    30   1
    33     9    31   1
    34     9    32   1
    35     9    33   1
    36    10    34   1
    37    10    35   1
    38    10    36   1
    39    11    37   1
    40    12    38   1
    41    13    39   1
    42    13    40   1
    43    14    41   1
    44    15    42   1
    45    16    43   1
    46    16    44   1
    47    17    45   1
    48    18    46   1
    49    19    47   1
    50    20    48   1
    51    21    49   1
    52    22    50   1
    53    23    51   1
    54    24    52   1
    55    24    53   1
    56    25    54   1
    57    25    55   1
@<TRIPOS>SUBSTRUCTURE
     1  HN4      2

