@<TRIPOS>MOLECULE
3f17_ligand_013
    33    34
SMALL
GAST_HUCK
****
This file was generated by PARSER (from files_GN.cpp)

@<TRIPOS>ATOM
      1 O4          7.2849   -8.0853    7.2526 O.2         1 HS4      -0.1501
      2 S1          6.2339   -7.2506    8.1143 S.o2        1 HS4       0.0703
      3 O3          5.4400   -8.3964    8.8766 O.2         1 HS4      -0.1501
      4 N1          7.1276   -6.2865    9.1794 N.am        1 HS4      -0.2276
      5 C12         6.8966   -6.2196   10.5835 C.3         1 HS4       0.1298
      6 C14         7.2270   -7.4561   11.2747 C.2         1 HS4       0.3057
      7 O1          6.3370   -8.2720   11.4997 O.2         1 HS4      -0.3264
      8 N2          8.4751   -7.6935   11.6501 N.2         1 HS4       0.0367
      9 O2          8.8156   -8.6976   12.2207 O.2         1 HS4      -0.1732
     10 C13         5.0484   -6.4395    7.1258 C.ar        1 HS4       0.1083
     11 C10         4.1263   -5.5479    7.7106 C.ar        1 HS4      -0.0345
     12 C5          3.1412   -4.9322    6.9165 C.ar        1 HS4      -0.0522
     13 C11         4.9668   -6.7258    5.7500 C.ar        1 HS4      -0.0345
     14 C8          3.9967   -6.0938    4.9554 C.ar        1 HS4      -0.0522
     15 C2          3.0731   -5.1917    5.5294 C.ar        1 HS4      -0.0178
     16 C1          2.0844   -4.5805    4.7241 C.ar        1 HS4      -0.0179
     17 C4          2.4541   -3.7319    3.6556 C.ar        1 HS4      -0.0540
     18 C7          1.4710   -3.1344    2.8437 C.ar        1 HS4      -0.0612
     19 C9          0.1078   -3.3935    3.0870 C.ar        1 HS4      -0.0617
     20 C6         -0.2718   -4.2411    4.1451 C.ar        1 HS4      -0.0612
     21 C3          0.7123   -4.8256    4.9635 C.ar        1 HS4      -0.0540
     22 H1          7.8918   -5.8066    8.8147 H           1 HS4       0.1703
     23 H2          5.8582   -5.9381   10.7646 H           1 HS4       0.0728
     24 H3          7.5190   -5.4090   10.9720 H           1 HS4       0.0728
     25 H4          4.1615   -5.3438    8.7147 H           1 HS4       0.0637
     26 H5          2.4823   -4.2875    7.3569 H           1 HS4       0.0624
     27 H6          5.6052   -7.3968    5.3230 H           1 HS4       0.0637
     28 H7          3.9558   -6.3203    3.9569 H           1 HS4       0.0624
     29 H8          3.4399   -3.5320    3.4647 H           1 HS4       0.0624
     30 H9          1.7441   -2.5157    2.0790 H           1 HS4       0.0618
     31 H10        -0.6081   -2.9652    2.4915 H           1 HS4       0.0618
     32 H11        -1.2580   -4.4344    4.3134 H           1 HS4       0.0618
     33 H12         0.4184   -5.4484    5.7213 H           1 HS4       0.0624
@<TRIPOS>BOND
     1     1     2   2
     2     2     3   2
     3     2     4  am
     4     2    10   1
     5     4     5   1
     6     5     6   1
     7     6     7   2
     8     6     8   1
     9     8     9   2
    10    10    11  ar
    11    10    13  ar
    12    11    12  ar
    13    12    15  ar
    14    13    14  ar
    15    14    15  ar
    16    15    16   1
    17    16    17  ar
    18    16    21  ar
    19    17    18  ar
    20    18    19  ar
    21    19    20  ar
    22    20    21  ar
    23     4    22   1
    24     5    23   1
    25     5    24   1
    26    11    25   1
    27    12    26   1
    28    13    27   1
    29    14    28   1
    30    17    29   1
    31    18    30   1
    32    19    31   1
    33    20    32   1
    34    21    33   1
@<TRIPOS>SUBSTRUCTURE
     1  HS4      5

