@<TRIPOS>MOLECULE
3f17_ligand_040
    33    34
SMALL
GAST_HUCK
****
This file was generated by PARSER (from files_GN.cpp)

@<TRIPOS>ATOM
      1 O4          2.8244    0.4592    2.4159 O.2         1 HS4      -0.1501
      2 S1          1.8731   -0.1406    3.5406 S.o2        1 HS4       0.0703
      3 O3          2.6377   -1.4422    4.0380 O.2         1 HS4      -0.1501
      4 N1          1.8582    0.8828    4.8808 N.am        1 HS4      -0.2276
      5 C12         1.9939    2.2940    4.7863 C.3         1 HS4       0.1298
      6 C14         0.8203    2.8966    4.1846 C.2         1 HS4       0.3057
      7 O1         -0.2681    2.7178    4.7144 O.2         1 HS4      -0.3264
      8 N2          0.9362    3.6207    3.0853 N.2         1 HS4       0.0367
      9 O2          0.0169    4.1532    2.5205 O.2         1 HS4      -0.1732
     10 C13         0.2704   -0.5215    2.9696 C.ar        1 HS4       0.1083
     11 C10        -0.6538   -1.1198    3.8505 C.ar        1 HS4      -0.0345
     12 C5         -1.9559   -1.4295    3.4190 C.ar        1 HS4      -0.0522
     13 C11        -0.1262   -0.2303    1.6477 C.ar        1 HS4      -0.0345
     14 C8         -1.4291   -0.5404    1.2116 C.ar        1 HS4      -0.0522
     15 C2         -2.3546   -1.1459    2.0934 C.ar        1 HS4      -0.0178
     16 C1         -3.6533   -1.4853    1.6486 C.ar        1 HS4      -0.0179
     17 C4         -4.7773   -0.7301    2.0578 C.ar        1 HS4      -0.0540
     18 C7         -6.0674   -1.0714    1.6107 C.ar        1 HS4      -0.0612
     19 C9         -6.2453   -2.1718    0.7505 C.ar        1 HS4      -0.0617
     20 C6         -5.1345   -2.9276    0.3343 C.ar        1 HS4      -0.0612
     21 C3         -3.8437   -2.5854    0.7802 C.ar        1 HS4      -0.0540
     22 H1          1.5451    0.5110    5.7240 H           1 HS4       0.1703
     23 H2          2.9006    2.5378    4.2294 H           1 HS4       0.0728
     24 H3          2.1208    2.6907    5.7951 H           1 HS4       0.0728
     25 H4         -0.3821   -1.3362    4.8131 H           1 HS4       0.0637
     26 H5         -2.6078   -1.8741    4.0738 H           1 HS4       0.0624
     27 H6          0.5241    0.2161    0.9954 H           1 HS4       0.0637
     28 H7         -1.6970   -0.3205    0.2477 H           1 HS4       0.0624
     29 H8         -4.6643    0.0735    2.6801 H           1 HS4       0.0624
     30 H9         -6.8759   -0.5176    1.9054 H           1 HS4       0.0618
     31 H10        -7.1833   -2.4166    0.4235 H           1 HS4       0.0618
     32 H11        -5.2663   -3.7341   -0.2827 H           1 HS4       0.0618
     33 H12        -3.0463   -3.1474    0.4731 H           1 HS4       0.0624
@<TRIPOS>BOND
     1     1     2   2
     2     2     3   2
     3     2     4  am
     4     2    10   1
     5     4     5   1
     6     5     6   1
     7     6     7   2
     8     6     8   1
     9     8     9   2
    10    10    11  ar
    11    10    13  ar
    12    11    12  ar
    13    12    15  ar
    14    13    14  ar
    15    14    15  ar
    16    15    16   1
    17    16    17  ar
    18    16    21  ar
    19    17    18  ar
    20    18    19  ar
    21    19    20  ar
    22    20    21  ar
    23     4    22   1
    24     5    23   1
    25     5    24   1
    26    11    25   1
    27    12    26   1
    28    13    27   1
    29    14    28   1
    30    17    29   1
    31    18    30   1
    32    19    31   1
    33    20    32   1
    34    21    33   1
@<TRIPOS>SUBSTRUCTURE
     1  HS4      5

