@<TRIPOS>MOLECULE
3f17_ligand_008
    33    34
SMALL
GAST_HUCK
****
This file was generated by PARSER (from files_GN.cpp)

@<TRIPOS>ATOM
      1 O4          2.9609   -3.0979    4.9598 O.2         1 HS4      -0.1501
      2 S1          1.5949   -3.9095    4.9354 S.o2        1 HS4       0.0703
      3 O3          1.9142   -5.2075    4.0720 O.2         1 HS4      -0.1501
      4 N1          1.2572   -4.2936    6.5417 N.am        1 HS4      -0.2276
      5 C12         0.7044   -5.5333    6.9720 C.3         1 HS4       0.1298
      6 C14         1.7561   -6.4544    7.3448 C.2         1 HS4       0.3057
      7 O1          2.0606   -6.5921    8.5235 O.2         1 HS4      -0.3264
      8 N2          2.3826   -7.1357    6.4029 N.2         1 HS4       0.0367
      9 O2          3.2642   -7.9292    6.6024 O.2         1 HS4      -0.1732
     10 C13         0.3628   -2.9379    4.1858 C.ar        1 HS4       0.1083
     11 C10         0.4396   -1.5289    4.2018 C.ar        1 HS4      -0.0345
     12 C5         -0.5715   -0.7547    3.6048 C.ar        1 HS4      -0.0522
     13 C11        -0.7384   -3.5615    3.5681 C.ar        1 HS4      -0.0345
     14 C8         -1.7487   -2.7849    2.9753 C.ar        1 HS4      -0.0522
     15 C2         -1.6834   -1.3736    2.9902 C.ar        1 HS4      -0.0178
     16 C1         -2.7162   -0.6055    2.3911 C.ar        1 HS4      -0.0179
     17 C4         -2.4129    0.3853    1.4268 C.ar        1 HS4      -0.0540
     18 C7         -3.4419    1.1181    0.8083 C.ar        1 HS4      -0.0612
     19 C9         -4.7838    0.8762    1.1509 C.ar        1 HS4      -0.0617
     20 C6         -5.0984   -0.0948    2.1177 C.ar        1 HS4      -0.0612
     21 C3         -4.0721   -0.8369    2.7279 C.ar        1 HS4      -0.0540
     22 H1          1.6294   -3.7120    7.2204 H           1 HS4       0.1703
     23 H2          0.0514   -5.9827    6.2149 H           1 HS4       0.0728
     24 H3          0.0810   -5.3147    7.8390 H           1 HS4       0.0728
     25 H4          1.2253   -1.0545    4.6517 H           1 HS4       0.0637
     26 H5         -0.5016    0.2656    3.6432 H           1 HS4       0.0624
     27 H6         -0.8168   -4.5808    3.5478 H           1 HS4       0.0637
     28 H7         -2.5326   -3.2576    2.5231 H           1 HS4       0.0624
     29 H8         -1.4433    0.5644    1.1515 H           1 HS4       0.0624
     30 H9         -3.2139    1.8254    0.1055 H           1 HS4       0.0618
     31 H10        -5.5309    1.4020    0.6963 H           1 HS4       0.0618
     32 H11        -6.0742   -0.2626    2.3766 H           1 HS4       0.0618
     33 H12        -4.3209   -1.5398    3.4298 H           1 HS4       0.0624
@<TRIPOS>BOND
     1     1     2   2
     2     2     3   2
     3     2     4  am
     4     2    10   1
     5     4     5   1
     6     5     6   1
     7     6     7   2
     8     6     8   1
     9     8     9   2
    10    10    11  ar
    11    10    13  ar
    12    11    12  ar
    13    12    15  ar
    14    13    14  ar
    15    14    15  ar
    16    15    16   1
    17    16    17  ar
    18    16    21  ar
    19    17    18  ar
    20    18    19  ar
    21    19    20  ar
    22    20    21  ar
    23     4    22   1
    24     5    23   1
    25     5    24   1
    26    11    25   1
    27    12    26   1
    28    13    27   1
    29    14    28   1
    30    17    29   1
    31    18    30   1
    32    19    31   1
    33    20    32   1
    34    21    33   1
@<TRIPOS>SUBSTRUCTURE
     1  HS4      5

