@<TRIPOS>MOLECULE
3f17_ligand_030
    33    34
SMALL
GAST_HUCK
****
This file was generated by PARSER (from files_GN.cpp)

@<TRIPOS>ATOM
      1 O4         -0.1474   -2.1540    3.3524 O.2         1 HS4      -0.1501
      2 S1          1.3896   -1.7602    3.4709 S.o2        1 HS4       0.0703
      3 O3          2.0089   -1.5824    2.0164 O.2         1 HS4      -0.1501
      4 N1          1.5107   -0.3159    4.3359 N.am        1 HS4      -0.2276
      5 C12         1.4132    0.9719    3.7428 C.3         1 HS4       0.1298
      6 C14         2.7309    1.5064    3.4649 C.2         1 HS4       0.3057
      7 O1          3.1186    2.5093    4.0554 O.2         1 HS4      -0.3264
      8 N2          3.5001    0.9058    2.5751 N.2         1 HS4       0.0367
      9 O2          4.6060    1.2672    2.2685 O.2         1 HS4      -0.1732
     10 C13         2.2224   -3.0272    4.3246 C.ar        1 HS4       0.1083
     11 C10         2.0012   -3.1938    5.7056 C.ar        1 HS4      -0.0345
     12 C5          2.6895   -4.1874    6.4241 C.ar        1 HS4      -0.0522
     13 C11         3.1240   -3.8889    3.6680 C.ar        1 HS4      -0.0345
     14 C8          3.7998   -4.8923    4.3870 C.ar        1 HS4      -0.0522
     15 C2          3.6039   -5.0576    5.7805 C.ar        1 HS4      -0.0178
     16 C1          4.3074   -6.0609    6.5154 C.ar        1 HS4      -0.0179
     17 C4          5.6613   -6.3708    6.2273 C.ar        1 HS4      -0.0540
     18 C7          6.3591   -7.3452    6.9675 C.ar        1 HS4      -0.0612
     19 C9          5.7177   -8.0217    8.0196 C.ar        1 HS4      -0.0617
     20 C6          4.3731   -7.7387    8.3163 C.ar        1 HS4      -0.0612
     21 C3          3.6748   -6.7741    7.5658 C.ar        1 HS4      -0.0540
     22 H1          1.8365   -0.3660    5.2544 H           1 HS4       0.1703
     23 H2          0.8749    1.6151    4.4491 H           1 HS4       0.0728
     24 H3          0.8259    0.9395    2.8179 H           1 HS4       0.0728
     25 H4          1.3453   -2.5829    6.2015 H           1 HS4       0.0637
     26 H5          2.5288   -4.2544    7.4324 H           1 HS4       0.0624
     27 H6          3.2943   -3.8019    2.6617 H           1 HS4       0.0637
     28 H7          4.4315   -5.5137    3.8759 H           1 HS4       0.0624
     29 H8          6.1629   -5.8774    5.4862 H           1 HS4       0.0624
     30 H9          7.3368   -7.5534    6.7479 H           1 HS4       0.0618
     31 H10         6.2262   -8.7214    8.5631 H           1 HS4       0.0618
     32 H11         3.9008   -8.2394    9.0725 H           1 HS4       0.0618
     33 H12         2.6912   -6.6073    7.7936 H           1 HS4       0.0624
@<TRIPOS>BOND
     1     1     2   2
     2     2     3   2
     3     2     4  am
     4     2    10   1
     5     4     5   1
     6     5     6   1
     7     6     7   2
     8     6     8   1
     9     8     9   2
    10    10    11  ar
    11    10    13  ar
    12    11    12  ar
    13    12    15  ar
    14    13    14  ar
    15    14    15  ar
    16    15    16   1
    17    16    17  ar
    18    16    21  ar
    19    17    18  ar
    20    18    19  ar
    21    19    20  ar
    22    20    21  ar
    23     4    22   1
    24     5    23   1
    25     5    24   1
    26    11    25   1
    27    12    26   1
    28    13    27   1
    29    14    28   1
    30    17    29   1
    31    18    30   1
    32    19    31   1
    33    20    32   1
    34    21    33   1
@<TRIPOS>SUBSTRUCTURE
     1  HS4      5

