@<TRIPOS>MOLECULE
3f17_ligand_017
    33    34
SMALL
GAST_HUCK
****
This file was generated by PARSER (from files_GN.cpp)

@<TRIPOS>ATOM
      1 O4          3.2236   -5.4518    3.9587 O.2         1 HS4      -0.1501
      2 S1          2.8531   -4.7669    5.3468 S.o2        1 HS4       0.0703
      3 O3          3.1643   -3.2175    5.1790 O.2         1 HS4      -0.1501
      4 N1          1.1923   -4.9299    5.6020 N.am        1 HS4      -0.2276
      5 C12         0.2657   -5.2083    4.5521 C.3         1 HS4       0.1298
      6 C14         0.1836   -6.6032    4.1728 C.2         1 HS4       0.3057
      7 O1          0.6334   -7.4841    4.8950 O.2         1 HS4      -0.3264
      8 N2         -0.4084   -6.9024    3.0310 N.2         1 HS4       0.0367
      9 O2         -0.5434   -8.0110    2.5855 O.2         1 HS4      -0.1732
     10 C13         3.8784   -5.4656    6.5782 C.ar        1 HS4       0.1083
     11 C10         3.5754   -5.2929    7.9463 C.ar        1 HS4      -0.0345
     12 C5          4.3886   -5.8761    8.9392 C.ar        1 HS4      -0.0522
     13 C11         5.0222   -6.2154    6.2223 C.ar        1 HS4      -0.0345
     14 C8          5.8275   -6.8113    7.2110 C.ar        1 HS4      -0.0522
     15 C2          5.5177   -6.6446    8.5778 C.ar        1 HS4      -0.0178
     16 C1          6.3118   -7.2651    9.5672 C.ar        1 HS4      -0.0179
     17 C4          7.0614   -6.4905   10.4809 C.ar        1 HS4      -0.0540
     18 C7          7.8467   -7.1170   11.4671 C.ar        1 HS4      -0.0612
     19 C9          7.8897   -8.5199   11.5485 C.ar        1 HS4      -0.0617
     20 C6          7.1376   -9.2991   10.6520 C.ar        1 HS4      -0.0612
     21 C3          6.3615   -8.6748    9.6571 C.ar        1 HS4      -0.0540
     22 H1          0.8656   -4.9025    6.5152 H           1 HS4       0.1703
     23 H2          0.5334   -4.6092    3.6748 H           1 HS4       0.0728
     24 H3         -0.7262   -4.8829    4.8754 H           1 HS4       0.0728
     25 H4          2.7563   -4.7514    8.2317 H           1 HS4       0.0637
     26 H5          4.1380   -5.7538    9.9254 H           1 HS4       0.0624
     27 H6          5.2759   -6.3473    5.2407 H           1 HS4       0.0637
     28 H7          6.6391   -7.3684    6.9253 H           1 HS4       0.0624
     29 H8          7.0454   -5.4690   10.4339 H           1 HS4       0.0624
     30 H9          8.3792   -6.5522   12.1313 H           1 HS4       0.0618
     31 H10         8.4588   -8.9729   12.2670 H           1 HS4       0.0618
     32 H11         7.1511  -10.3173   10.7268 H           1 HS4       0.0618
     33 H12         5.8225   -9.2548    9.0101 H           1 HS4       0.0624
@<TRIPOS>BOND
     1     1     2   2
     2     2     3   2
     3     2     4  am
     4     2    10   1
     5     4     5   1
     6     5     6   1
     7     6     7   2
     8     6     8   1
     9     8     9   2
    10    10    11  ar
    11    10    13  ar
    12    11    12  ar
    13    12    15  ar
    14    13    14  ar
    15    14    15  ar
    16    15    16   1
    17    16    17  ar
    18    16    21  ar
    19    17    18  ar
    20    18    19  ar
    21    19    20  ar
    22    20    21  ar
    23     4    22   1
    24     5    23   1
    25     5    24   1
    26    11    25   1
    27    12    26   1
    28    13    27   1
    29    14    28   1
    30    17    29   1
    31    18    30   1
    32    19    31   1
    33    20    32   1
    34    21    33   1
@<TRIPOS>SUBSTRUCTURE
     1  HS4      5

