@<TRIPOS>MOLECULE
3f17_ligand_025
    33    34
SMALL
GAST_HUCK
****
This file was generated by PARSER (from files_GN.cpp)

@<TRIPOS>ATOM
      1 O4          6.8929  -10.1179   11.5001 O.2         1 HS4      -0.1501
      2 S1          7.6150   -8.9534   10.6942 S.o2        1 HS4       0.0703
      3 O3          8.2078   -8.0211   11.8378 O.2         1 HS4      -0.1501
      4 N1          8.8597   -9.6854    9.8251 N.am        1 HS4      -0.2276
      5 C12         9.9219   -8.9379    9.2384 C.3         1 HS4       0.1298
      6 C14        11.1117   -8.9696   10.0624 C.2         1 HS4       0.3057
      7 O1         11.6049  -10.0520   10.3641 O.2         1 HS4      -0.3264
      8 N2         11.6768   -7.8421   10.4516 N.2         1 HS4       0.0367
      9 O2         12.6731   -7.7703   11.1214 O.2         1 HS4      -0.1732
     10 C13         6.3854   -8.1515    9.7507 C.ar        1 HS4       0.1083
     11 C10         5.3707   -7.4122   10.3902 C.ar        1 HS4      -0.0345
     12 C5          4.3821   -6.7542    9.6333 C.ar        1 HS4      -0.0522
     13 C11         6.3892   -8.2346    8.3445 C.ar        1 HS4      -0.0345
     14 C8          5.4029   -7.5721    7.5878 C.ar        1 HS4      -0.0522
     15 C2          4.3900   -6.8100    8.2171 C.ar        1 HS4      -0.0178
     16 C1          3.4041   -6.1251    7.4463 C.ar        1 HS4      -0.0179
     17 C4          2.0282   -6.2261    7.7690 C.ar        1 HS4      -0.0540
     18 C7          1.0576   -5.5386    7.0178 C.ar        1 HS4      -0.0612
     19 C9          1.4470   -4.7378    5.9284 C.ar        1 HS4      -0.0617
     20 C6          2.8077   -4.6183    5.5975 C.ar        1 HS4      -0.0612
     21 C3          3.7775   -5.3106    6.3476 C.ar        1 HS4      -0.0540
     22 H1          8.9469  -10.6510    9.8769 H           1 HS4       0.1703
     23 H2          9.6045   -7.9090    9.0453 H           1 HS4       0.0728
     24 H3         10.1548   -9.3827    8.2714 H           1 HS4       0.0728
     25 H4          5.3496   -7.3361   11.4110 H           1 HS4       0.0637
     26 H5          3.6751   -6.2015   10.1249 H           1 HS4       0.0624
     27 H6          7.1122   -8.7679    7.8544 H           1 HS4       0.0637
     28 H7          5.4322   -7.6537    6.5680 H           1 HS4       0.0624
     29 H8          1.7164   -6.8132    8.5472 H           1 HS4       0.0624
     30 H9          0.0678   -5.6222    7.2591 H           1 HS4       0.0618
     31 H10         0.7414   -4.2346    5.3848 H           1 HS4       0.0618
     32 H11         3.0934   -4.0294    4.8099 H           1 HS4       0.0618
     33 H12         4.7625   -5.1993    6.0967 H           1 HS4       0.0624
@<TRIPOS>BOND
     1     1     2   2
     2     2     3   2
     3     2     4  am
     4     2    10   1
     5     4     5   1
     6     5     6   1
     7     6     7   2
     8     6     8   1
     9     8     9   2
    10    10    11  ar
    11    10    13  ar
    12    11    12  ar
    13    12    15  ar
    14    13    14  ar
    15    14    15  ar
    16    15    16   1
    17    16    17  ar
    18    16    21  ar
    19    17    18  ar
    20    18    19  ar
    21    19    20  ar
    22    20    21  ar
    23     4    22   1
    24     5    23   1
    25     5    24   1
    26    11    25   1
    27    12    26   1
    28    13    27   1
    29    14    28   1
    30    17    29   1
    31    18    30   1
    32    19    31   1
    33    20    32   1
    34    21    33   1
@<TRIPOS>SUBSTRUCTURE
     1  HS4      5

