@<TRIPOS>MOLECULE
3f17_ligand_031
    33    34
SMALL
GAST_HUCK
****
This file was generated by PARSER (from files_GN.cpp)

@<TRIPOS>ATOM
      1 O4          8.7407   -8.1887    7.5425 O.2         1 HS4      -0.1501
      2 S1          7.4851   -7.9973    8.4986 S.o2        1 HS4       0.0703
      3 O3          7.3247   -9.4241    9.1796 O.2         1 HS4      -0.1501
      4 N1          7.8789   -6.8400    9.6658 N.am        1 HS4      -0.2276
      5 C12         7.8225   -7.1115   11.0673 C.3         1 HS4       0.1298
      6 C14         8.8467   -8.0441   11.5028 C.2         1 HS4       0.3057
      7 O1          8.5341   -9.0486   12.1311 O.2         1 HS4      -0.3264
      8 N2         10.1075   -7.8333   11.1716 N.2         1 HS4       0.0367
      9 O2         11.0208   -8.5662   11.4430 O.2         1 HS4      -0.1732
     10 C13         6.0088   -7.6531    7.6409 C.ar        1 HS4       0.1083
     11 C10         4.7620   -7.8468    8.2701 C.ar        1 HS4      -0.0345
     12 C5          3.5631   -7.5948    7.5749 C.ar        1 HS4      -0.0522
     13 C11         6.0376   -7.1790    6.3151 C.ar        1 HS4      -0.0345
     14 C8          4.8404   -6.9203    5.6194 C.ar        1 HS4      -0.0522
     15 C2          3.5898   -7.1357    6.2394 C.ar        1 HS4      -0.0178
     16 C1          2.3846   -6.8986    5.5269 C.ar        1 HS4      -0.0179
     17 C4          1.6383   -5.7171    5.7475 C.ar        1 HS4      -0.0540
     18 C7          0.4407   -5.4899    5.0407 C.ar        1 HS4      -0.0612
     19 C9         -0.0220   -6.4383    4.1116 C.ar        1 HS4      -0.0617
     20 C6          0.7115   -7.6163    3.8869 C.ar        1 HS4      -0.0612
     21 C3          1.9119   -7.8462    4.5878 C.ar        1 HS4      -0.0540
     22 H1          8.3743   -6.0539    9.3691 H           1 HS4       0.1703
     23 H2          6.8210   -7.4786   11.3162 H           1 HS4       0.0728
     24 H3          7.9629   -6.1714   11.6006 H           1 HS4       0.0728
     25 H4          4.7176   -8.1798    9.2323 H           1 HS4       0.0637
     26 H5          2.6692   -7.7504    8.0439 H           1 HS4       0.0624
     27 H6          6.9262   -7.0202    5.8451 H           1 HS4       0.0637
     28 H7          4.8833   -6.5659    4.6622 H           1 HS4       0.0624
     29 H8          1.9659   -5.0167    6.4187 H           1 HS4       0.0624
     30 H9         -0.0992   -4.6403    5.2080 H           1 HS4       0.0618
     31 H10        -0.8963   -6.2771    3.6081 H           1 HS4       0.0618
     32 H11         0.3709   -8.3042    3.2137 H           1 HS4       0.0618
     33 H12         2.4384   -8.7071    4.4142 H           1 HS4       0.0624
@<TRIPOS>BOND
     1     1     2   2
     2     2     3   2
     3     2     4  am
     4     2    10   1
     5     4     5   1
     6     5     6   1
     7     6     7   2
     8     6     8   1
     9     8     9   2
    10    10    11  ar
    11    10    13  ar
    12    11    12  ar
    13    12    15  ar
    14    13    14  ar
    15    14    15  ar
    16    15    16   1
    17    16    17  ar
    18    16    21  ar
    19    17    18  ar
    20    18    19  ar
    21    19    20  ar
    22    20    21  ar
    23     4    22   1
    24     5    23   1
    25     5    24   1
    26    11    25   1
    27    12    26   1
    28    13    27   1
    29    14    28   1
    30    17    29   1
    31    18    30   1
    32    19    31   1
    33    20    32   1
    34    21    33   1
@<TRIPOS>SUBSTRUCTURE
     1  HS4      5

