@<TRIPOS>MOLECULE
3f17_ligand_015
    33    34
SMALL
GAST_HUCK
****
This file was generated by PARSER (from files_GN.cpp)

@<TRIPOS>ATOM
      1 O4          7.0771   -9.3579    9.3348 O.2         1 HS4      -0.1501
      2 S1          7.2299   -7.8000    9.6424 S.o2        1 HS4       0.0703
      3 O3          6.8378   -7.5309   11.1587 O.2         1 HS4      -0.1501
      4 N1          8.8206   -7.3302    9.3683 N.am        1 HS4      -0.2276
      5 C12         9.9562   -8.0050    9.9150 C.3         1 HS4       0.1298
      6 C14        10.1655   -9.3365    9.3728 C.2         1 HS4       0.3057
      7 O1         10.1586   -9.4954    8.1537 O.2         1 HS4      -0.3264
      8 N2         10.4750  -10.3335   10.1815 N.2         1 HS4       0.0367
      9 O2         10.7182  -11.4513    9.8132 O.2         1 HS4      -0.1732
     10 C13         6.1445   -6.9944    8.5474 C.ar        1 HS4       0.1083
     11 C10         5.1047   -6.1746    9.0242 C.ar        1 HS4      -0.0345
     12 C5          4.2054   -5.5634    8.1264 C.ar        1 HS4      -0.0522
     13 C11         6.2906   -7.1717    7.1568 C.ar        1 HS4      -0.0345
     14 C8          5.3949   -6.5560    6.2595 C.ar        1 HS4      -0.0522
     15 C2          4.3328   -5.7427    6.7272 C.ar        1 HS4      -0.0178
     16 C1          3.4043   -5.1332    5.8177 C.ar        1 HS4      -0.0179
     17 C4          2.0097   -5.1572    6.0789 C.ar        1 HS4      -0.0540
     18 C7          1.0962   -4.5477    5.1968 C.ar        1 HS4      -0.0612
     19 C9          1.5596   -3.9040    4.0375 C.ar        1 HS4      -0.0617
     20 C6          2.9363   -3.8742    3.7573 C.ar        1 HS4      -0.0612
     21 C3          3.8523   -4.4872    4.6361 C.ar        1 HS4      -0.0540
     22 H1          8.9645   -6.4411    8.9945 H           1 HS4       0.1703
     23 H2          9.8549   -8.0348   11.0046 H           1 HS4       0.0728
     24 H3         10.8286   -7.4060    9.6833 H           1 HS4       0.0728
     25 H4          4.9738   -6.0176   10.0256 H           1 HS4       0.0637
     26 H5          3.4681   -4.9618    8.5068 H           1 HS4       0.0624
     27 H6          7.0378   -7.7590    6.7815 H           1 HS4       0.0637
     28 H7          5.5163   -6.7288    5.2552 H           1 HS4       0.0624
     29 H8          1.6419   -5.6315    6.9073 H           1 HS4       0.0624
     30 H9          0.0972   -4.5738    5.4015 H           1 HS4       0.0618
     31 H10         0.8998   -3.4604    3.3996 H           1 HS4       0.0618
     32 H11         3.2762   -3.4093    2.9131 H           1 HS4       0.0618
     33 H12         4.8505   -4.4343    4.4167 H           1 HS4       0.0624
@<TRIPOS>BOND
     1     1     2   2
     2     2     3   2
     3     2     4  am
     4     2    10   1
     5     4     5   1
     6     5     6   1
     7     6     7   2
     8     6     8   1
     9     8     9   2
    10    10    11  ar
    11    10    13  ar
    12    11    12  ar
    13    12    15  ar
    14    13    14  ar
    15    14    15  ar
    16    15    16   1
    17    16    17  ar
    18    16    21  ar
    19    17    18  ar
    20    18    19  ar
    21    19    20  ar
    22    20    21  ar
    23     4    22   1
    24     5    23   1
    25     5    24   1
    26    11    25   1
    27    12    26   1
    28    13    27   1
    29    14    28   1
    30    17    29   1
    31    18    30   1
    32    19    31   1
    33    20    32   1
    34    21    33   1
@<TRIPOS>SUBSTRUCTURE
     1  HS4      5

