@<TRIPOS>MOLECULE
3f17_ligand_029
    33    34
SMALL
GAST_HUCK
****
This file was generated by PARSER (from files_GN.cpp)

@<TRIPOS>ATOM
      1 O4          1.9081   -6.8732    7.2052 O.2         1 HS4      -0.1501
      2 S1          1.6491   -6.1316    5.8223 S.o2        1 HS4       0.0703
      3 O3          0.0895   -5.8298    5.8230 O.2         1 HS4      -0.1501
      4 N1          2.5417   -4.7001    5.8417 N.am        1 HS4      -0.2276
      5 C12         1.9816   -3.3954    5.7593 C.3         1 HS4       0.1298
      6 C14         1.8150   -2.9750    4.3830 C.2         1 HS4       0.3057
      7 O1          2.5915   -2.1602    3.8992 O.2         1 HS4      -0.3264
      8 N2          0.7946   -3.4381    3.6829 N.2         1 HS4       0.0367
      9 O2          0.5500   -3.1437    2.5413 O.2         1 HS4      -0.1732
     10 C13         1.9518   -7.1419    4.4341 C.ar        1 HS4       0.1083
     11 C10         2.2457   -8.5086    4.5962 C.ar        1 HS4      -0.0345
     12 C5          2.5244   -9.3133    3.4774 C.ar        1 HS4      -0.0522
     13 C11         1.9273   -6.6007    3.1352 C.ar        1 HS4      -0.0345
     14 C8          2.2073   -7.4080    2.0159 C.ar        1 HS4      -0.0522
     15 C2          2.5192   -8.7806    2.1631 C.ar        1 HS4      -0.0178
     16 C1          2.8449   -9.5916    1.0293 C.ar        1 HS4      -0.0179
     17 C4          2.2134   -9.3914   -0.2254 C.ar        1 HS4      -0.0540
     18 C7          2.5465  -10.1783   -1.3427 C.ar        1 HS4      -0.0612
     19 C9          3.5183  -11.1860   -1.2303 C.ar        1 HS4      -0.0617
     20 C6          4.1562  -11.4051   -0.0003 C.ar        1 HS4      -0.0612
     21 C3          3.8217  -10.6151    1.1160 C.ar        1 HS4      -0.0540
     22 H1          3.5114   -4.7705    5.8881 H           1 HS4       0.1703
     23 H2          2.6763   -2.7316    6.2765 H           1 HS4       0.0728
     24 H3          1.0298   -3.3294    6.2895 H           1 HS4       0.0728
     25 H4          2.2758   -8.9288    5.5261 H           1 HS4       0.0637
     26 H5          2.7315  -10.3020    3.6424 H           1 HS4       0.0624
     27 H6          1.7321   -5.6107    2.9833 H           1 HS4       0.0637
     28 H7          2.2130   -6.9633    1.0961 H           1 HS4       0.0624
     29 H8          1.4926   -8.6767   -0.3403 H           1 HS4       0.0624
     30 H9          2.0789  -10.0162   -2.2385 H           1 HS4       0.0618
     31 H10         3.7603  -11.7558   -2.0421 H           1 HS4       0.0618
     32 H11         4.8716  -12.1310    0.0855 H           1 HS4       0.0618
     33 H12         4.3199  -10.7889    1.9911 H           1 HS4       0.0624
@<TRIPOS>BOND
     1     1     2   2
     2     2     3   2
     3     2     4  am
     4     2    10   1
     5     4     5   1
     6     5     6   1
     7     6     7   2
     8     6     8   1
     9     8     9   2
    10    10    11  ar
    11    10    13  ar
    12    11    12  ar
    13    12    15  ar
    14    13    14  ar
    15    14    15  ar
    16    15    16   1
    17    16    17  ar
    18    16    21  ar
    19    17    18  ar
    20    18    19  ar
    21    19    20  ar
    22    20    21  ar
    23     4    22   1
    24     5    23   1
    25     5    24   1
    26    11    25   1
    27    12    26   1
    28    13    27   1
    29    14    28   1
    30    17    29   1
    31    18    30   1
    32    19    31   1
    33    20    32   1
    34    21    33   1
@<TRIPOS>SUBSTRUCTURE
     1  HS4      5

