@<TRIPOS>MOLECULE
3f17_ligand_024
    33    34
SMALL
GAST_HUCK
****
This file was generated by PARSER (from files_GN.cpp)

@<TRIPOS>ATOM
      1 O4          1.3177   -3.3655    4.7486 O.2         1 HS4      -0.1501
      2 S1          1.1229   -4.9320    4.9732 S.o2        1 HS4       0.0703
      3 O3         -0.3597   -5.1722    5.4953 O.2         1 HS4      -0.1501
      4 N1          1.1937   -5.7292    3.4898 N.am        1 HS4      -0.2276
      5 C12         2.3975   -6.2360    2.9298 C.3         1 HS4       0.1298
      6 C14         2.9248   -7.3441    3.7032 C.2         1 HS4       0.3057
      7 O1          3.9088   -7.1533    4.4240 O.2         1 HS4      -0.3264
      8 N2          2.3125   -8.5158    3.6919 N.2         1 HS4       0.0367
      9 O2          2.6739   -9.4570    4.3513 O.2         1 HS4      -0.1732
     10 C13         2.2490   -5.5873    6.1322 C.ar        1 HS4       0.1083
     11 C10         3.6092   -5.2561    6.0558 C.ar        1 HS4      -0.0345
     12 C5          4.5430   -5.8504    6.9178 C.ar        1 HS4      -0.0522
     13 C11         1.8190   -6.5238    7.1002 C.ar        1 HS4      -0.0345
     14 C8          2.7498   -7.1279    7.9656 C.ar        1 HS4      -0.0522
     15 C2          4.1300   -6.8175    7.8725 C.ar        1 HS4      -0.0178
     16 C1          5.0785   -7.4627    8.7254 C.ar        1 HS4      -0.0179
     17 C4          6.2748   -8.0074    8.1956 C.ar        1 HS4      -0.0540
     18 C7          7.2059   -8.6525    9.0415 C.ar        1 HS4      -0.0612
     19 C9          6.9521   -8.7564   10.4181 C.ar        1 HS4      -0.0617
     20 C6          5.7676   -8.2219   10.9552 C.ar        1 HS4      -0.0612
     21 C3          4.8386   -7.5793   10.1155 C.ar        1 HS4      -0.0540
     22 H1          0.3510   -5.9402    3.0438 H           1 HS4       0.1703
     23 H2          3.1300   -5.4234    2.8535 H           1 HS4       0.0728
     24 H3          2.1882   -6.5796    1.9082 H           1 HS4       0.0728
     25 H4          3.9360   -4.5735    5.3731 H           1 HS4       0.0637
     26 H5          5.5250   -5.5842    6.8584 H           1 HS4       0.0624
     27 H6          0.8358   -6.7873    7.1739 H           1 HS4       0.0637
     28 H7          2.4223   -7.8260    8.6370 H           1 HS4       0.0624
     29 H8          6.4672   -7.9657    7.1949 H           1 HS4       0.0624
     30 H9          8.0562   -9.0487    8.6468 H           1 HS4       0.0618
     31 H10         7.6228   -9.2172   11.0283 H           1 HS4       0.0618
     32 H11         5.5732   -8.3048   11.9534 H           1 HS4       0.0618
     33 H12         3.9840   -7.1927   10.5298 H           1 HS4       0.0624
@<TRIPOS>BOND
     1     1     2   2
     2     2     3   2
     3     2     4  am
     4     2    10   1
     5     4     5   1
     6     5     6   1
     7     6     7   2
     8     6     8   1
     9     8     9   2
    10    10    11  ar
    11    10    13  ar
    12    11    12  ar
    13    12    15  ar
    14    13    14  ar
    15    14    15  ar
    16    15    16   1
    17    16    17  ar
    18    16    21  ar
    19    17    18  ar
    20    18    19  ar
    21    19    20  ar
    22    20    21  ar
    23     4    22   1
    24     5    23   1
    25     5    24   1
    26    11    25   1
    27    12    26   1
    28    13    27   1
    29    14    28   1
    30    17    29   1
    31    18    30   1
    32    19    31   1
    33    20    32   1
    34    21    33   1
@<TRIPOS>SUBSTRUCTURE
     1  HS4      5

