@<TRIPOS>MOLECULE
3f17_ligand_036
    33    34
SMALL
GAST_HUCK
****
This file was generated by PARSER (from files_GN.cpp)

@<TRIPOS>ATOM
      1 O4          6.2481   -8.0137   11.0726 O.2         1 HS4      -0.1501
      2 S1          6.5307   -6.7509   10.1468 S.o2        1 HS4       0.0703
      3 O3          6.4203   -5.4800   11.0958 O.2         1 HS4      -0.1501
      4 N1          8.1034   -6.8236    9.5373 N.am        1 HS4      -0.2276
      5 C12         9.0743   -7.7887    9.9309 C.3         1 HS4       0.1298
      6 C14         9.0053   -8.9734    9.0971 C.2         1 HS4       0.3057
      7 O1          8.0192   -9.6941    9.1582 O.2         1 HS4      -0.3264
      8 N2         10.0191   -9.2920    8.3094 N.2         1 HS4       0.0367
      9 O2         10.0559  -10.2645    7.6016 O.2         1 HS4      -0.1732
     10 C13         5.2878   -6.7458    8.9265 C.ar        1 HS4       0.1083
     11 C10         4.0477   -6.1283    9.1832 C.ar        1 HS4      -0.0345
     12 C5          3.0291   -6.1461    8.2133 C.ar        1 HS4      -0.0522
     13 C11         5.4984   -7.3731    7.6791 C.ar        1 HS4      -0.0345
     14 C8          4.4776   -7.3828    6.7095 C.ar        1 HS4      -0.0522
     15 C2          3.2249   -6.7709    6.9596 C.ar        1 HS4      -0.0178
     16 C1          2.1851   -6.7967    5.9840 C.ar        1 HS4      -0.0179
     17 C4          1.8578   -7.9961    5.3026 C.ar        1 HS4      -0.0540
     18 C7          0.8285   -8.0264    4.3423 C.ar        1 HS4      -0.0612
     19 C9          0.1063   -6.8564    4.0467 C.ar        1 HS4      -0.0617
     20 C6          0.4168   -5.6569    4.7129 C.ar        1 HS4      -0.0612
     21 C3          1.4427   -5.6293    5.6732 C.ar        1 HS4      -0.0540
     22 H1          8.3413   -6.1998    8.8280 H           1 HS4       0.1703
     23 H2          8.9478   -8.0656   10.9790 H           1 HS4       0.0728
     24 H3         10.0541   -7.3108    9.8449 H           1 HS4       0.0728
     25 H4          3.8664   -5.6719   10.0803 H           1 HS4       0.0637
     26 H5          2.1300   -5.7112    8.4405 H           1 HS4       0.0624
     27 H6          6.3891   -7.8283    7.4685 H           1 HS4       0.0637
     28 H7          4.6682   -7.8306    5.8084 H           1 HS4       0.0624
     29 H8          2.3547   -8.8653    5.5077 H           1 HS4       0.0624
     30 H9          0.5993   -8.8997    3.8633 H           1 HS4       0.0618
     31 H10        -0.6446   -6.8781    3.3535 H           1 HS4       0.0618
     32 H11        -0.1120   -4.8042    4.5014 H           1 HS4       0.0618
     33 H12         1.6569   -4.7395    6.1347 H           1 HS4       0.0624
@<TRIPOS>BOND
     1     1     2   2
     2     2     3   2
     3     2     4  am
     4     2    10   1
     5     4     5   1
     6     5     6   1
     7     6     7   2
     8     6     8   1
     9     8     9   2
    10    10    11  ar
    11    10    13  ar
    12    11    12  ar
    13    12    15  ar
    14    13    14  ar
    15    14    15  ar
    16    15    16   1
    17    16    17  ar
    18    16    21  ar
    19    17    18  ar
    20    18    19  ar
    21    19    20  ar
    22    20    21  ar
    23     4    22   1
    24     5    23   1
    25     5    24   1
    26    11    25   1
    27    12    26   1
    28    13    27   1
    29    14    28   1
    30    17    29   1
    31    18    30   1
    32    19    31   1
    33    20    32   1
    34    21    33   1
@<TRIPOS>SUBSTRUCTURE
     1  HS4      5

