@<TRIPOS>MOLECULE
3f17_ligand_039
    33    34
SMALL
GAST_HUCK
****
This file was generated by PARSER (from files_GN.cpp)

@<TRIPOS>ATOM
      1 O4          1.4250   -5.3189    3.7447 O.2         1 HS4      -0.1501
      2 S1          0.8593   -4.3526    4.8735 S.o2        1 HS4       0.0703
      3 O3         -0.5497   -4.9174    5.3530 O.2         1 HS4      -0.1501
      4 N1          1.9110   -4.3684    6.1949 N.am        1 HS4      -0.2276
      5 C12         2.9104   -5.3644    6.4433 C.3         1 HS4       0.1298
      6 C14         2.4208   -6.7315    6.4079 C.2         1 HS4       0.3057
      7 O1          1.4160   -7.0115    7.0620 O.2         1 HS4      -0.3264
      8 N2          3.0571   -7.6493    5.7021 N.2         1 HS4       0.0367
      9 O2          2.7212   -8.8044    5.6275 O.2         1 HS4      -0.1732
     10 C13         0.7595   -2.7746    4.1412 C.ar        1 HS4       0.1083
     11 C10         1.9369   -2.1381    3.7051 C.ar        1 HS4      -0.0345
     12 C5          1.8838   -0.8626    3.1134 C.ar        1 HS4      -0.0522
     13 C11        -0.4784   -2.1221    3.9626 C.ar        1 HS4      -0.0345
     14 C8         -0.5329   -0.8463    3.3646 C.ar        1 HS4      -0.0522
     15 C2          0.6509   -0.1934    2.9396 C.ar        1 HS4      -0.0178
     16 C1          0.5976    1.1010    2.3440 C.ar        1 HS4      -0.0179
     17 C4         -0.3229    1.3863    1.3056 C.ar        1 HS4      -0.0540
     18 C7         -0.3932    2.6715    0.7337 C.ar        1 HS4      -0.0612
     19 C9          0.4577    3.6915    1.1901 C.ar        1 HS4      -0.0617
     20 C6          1.3846    3.4253    2.2139 C.ar        1 HS4      -0.0612
     21 C3          1.4552    2.1412    2.7841 C.ar        1 HS4      -0.0540
     22 H1          1.9199   -3.5810    6.7681 H           1 HS4       0.1703
     23 H2          3.3050   -5.1783    7.4495 H           1 HS4       0.0728
     24 H3          3.7323   -5.2261    5.7381 H           1 HS4       0.0728
     25 H4          2.8399   -2.6023    3.8104 H           1 HS4       0.0637
     26 H5          2.7590   -0.4315    2.8071 H           1 HS4       0.0624
     27 H6         -1.3545   -2.5668    4.2600 H           1 HS4       0.0637
     28 H7         -1.4419   -0.3907    3.2598 H           1 HS4       0.0624
     29 H8         -0.9460    0.6583    0.9494 H           1 HS4       0.0624
     30 H9         -1.0691    2.8636   -0.0095 H           1 HS4       0.0618
     31 H10         0.4003    4.6282    0.7806 H           1 HS4       0.0618
     32 H11         2.0026    4.1701    2.5472 H           1 HS4       0.0618
     33 H12         2.1313    1.9779    3.5352 H           1 HS4       0.0624
@<TRIPOS>BOND
     1     1     2   2
     2     2     3   2
     3     2     4  am
     4     2    10   1
     5     4     5   1
     6     5     6   1
     7     6     7   2
     8     6     8   1
     9     8     9   2
    10    10    11  ar
    11    10    13  ar
    12    11    12  ar
    13    12    15  ar
    14    13    14  ar
    15    14    15  ar
    16    15    16   1
    17    16    17  ar
    18    16    21  ar
    19    17    18  ar
    20    18    19  ar
    21    19    20  ar
    22    20    21  ar
    23     4    22   1
    24     5    23   1
    25     5    24   1
    26    11    25   1
    27    12    26   1
    28    13    27   1
    29    14    28   1
    30    17    29   1
    31    18    30   1
    32    19    31   1
    33    20    32   1
    34    21    33   1
@<TRIPOS>SUBSTRUCTURE
     1  HS4      5

