@<TRIPOS>MOLECULE
3f17_ligand_010
    33    34
SMALL
GAST_HUCK
****
This file was generated by PARSER (from files_GN.cpp)

@<TRIPOS>ATOM
      1 O4          1.0780   -2.4446    2.3059 O.2         1 HS4      -0.1501
      2 S1          1.5109   -2.9787    3.7399 S.o2        1 HS4       0.0703
      3 O3          3.0466   -2.6085    3.9014 O.2         1 HS4      -0.1501
      4 N1          0.7076   -2.1093    4.9447 N.am        1 HS4      -0.2276
      5 C12         1.2799   -1.0210    5.6691 C.3         1 HS4       0.1298
      6 C14         1.4733    0.1612    4.8522 C.2         1 HS4       0.3057
      7 O1          0.8320    1.1763    5.0940 O.2         1 HS4      -0.3264
      8 N2          2.3419    0.1398    3.8586 N.2         1 HS4       0.0367
      9 O2          2.5738    1.0759    3.1377 O.2         1 HS4      -0.1732
     10 C13         1.3685   -4.7170    3.8197 C.ar        1 HS4       0.1083
     11 C10         0.1045   -5.3298    3.6939 C.ar        1 HS4      -0.0345
     12 C5         -0.0127   -6.7316    3.7204 C.ar        1 HS4      -0.0522
     13 C11         2.5131   -5.5326    3.9599 C.ar        1 HS4      -0.0345
     14 C8          2.3934   -6.9321    4.0018 C.ar        1 HS4      -0.0522
     15 C2          1.1286   -7.5519    3.8834 C.ar        1 HS4      -0.0178
     16 C1          1.0095   -8.9677    3.9300 C.ar        1 HS4      -0.0179
     17 C4          0.2642   -9.6652    2.9495 C.ar        1 HS4      -0.0540
     18 C7          0.1383  -11.0655    3.0044 C.ar        1 HS4      -0.0612
     19 C9          0.7574  -11.7868    4.0407 C.ar        1 HS4      -0.0617
     20 C6          1.5043  -11.1096    5.0193 C.ar        1 HS4      -0.0612
     21 C3          1.6336   -9.7093    4.9624 C.ar        1 HS4      -0.0540
     22 H1         -0.1994   -2.3659    5.1677 H           1 HS4       0.1703
     23 H2          2.2270   -1.3178    6.1257 H           1 HS4       0.0728
     24 H3          0.5972   -0.7967    6.4904 H           1 HS4       0.0728
     25 H4         -0.7398   -4.7621    3.5780 H           1 HS4       0.0637
     26 H5         -0.9426   -7.1517    3.6372 H           1 HS4       0.0624
     27 H6          3.4464   -5.1217    4.0276 H           1 HS4       0.0637
     28 H7          3.2416   -7.4973    4.1036 H           1 HS4       0.0624
     29 H8         -0.1906   -9.1593    2.1840 H           1 HS4       0.0624
     30 H9         -0.4067  -11.5564    2.2922 H           1 HS4       0.0618
     31 H10         0.6643  -12.8028    4.0812 H           1 HS4       0.0618
     32 H11         1.9505  -11.6316    5.7767 H           1 HS4       0.0618
     33 H12         2.1715   -9.2353    5.6924 H           1 HS4       0.0624
@<TRIPOS>BOND
     1     1     2   2
     2     2     3   2
     3     2     4  am
     4     2    10   1
     5     4     5   1
     6     5     6   1
     7     6     7   2
     8     6     8   1
     9     8     9   2
    10    10    11  ar
    11    10    13  ar
    12    11    12  ar
    13    12    15  ar
    14    13    14  ar
    15    14    15  ar
    16    15    16   1
    17    16    17  ar
    18    16    21  ar
    19    17    18  ar
    20    18    19  ar
    21    19    20  ar
    22    20    21  ar
    23     4    22   1
    24     5    23   1
    25     5    24   1
    26    11    25   1
    27    12    26   1
    28    13    27   1
    29    14    28   1
    30    17    29   1
    31    18    30   1
    32    19    31   1
    33    20    32   1
    34    21    33   1
@<TRIPOS>SUBSTRUCTURE
     1  HS4      5

