@<TRIPOS>MOLECULE
3f17_ligand_041
    33    34
SMALL
GAST_HUCK
****
This file was generated by PARSER (from files_GN.cpp)

@<TRIPOS>ATOM
      1 O4          0.6070    0.7030    5.2592 O.2         1 HS4      -0.1501
      2 S1          1.3809   -0.1084    4.1340 S.o2        1 HS4       0.0703
      3 O3          2.4934   -0.8942    4.9508 O.2         1 HS4      -0.1501
      4 N1          0.3213   -1.2111    3.4193 N.am        1 HS4      -0.2276
      5 C12         0.5376   -2.6157    3.3628 C.3         1 HS4       0.1298
      6 C14         1.8960   -2.9932    3.0120 C.2         1 HS4       0.3057
      7 O1          2.8042   -2.6667    3.7680 O.2         1 HS4      -0.3264
      8 N2          2.1505   -3.6737    1.9030 N.2         1 HS4       0.0367
      9 O2          3.2459   -4.0231    1.5446 O.2         1 HS4      -0.1732
     10 C13         2.1542    1.0149    3.0471 C.ar        1 HS4       0.1083
     11 C10         2.8507    2.1258    3.5607 C.ar        1 HS4      -0.0345
     12 C5          3.4223    3.0722    2.6910 C.ar        1 HS4      -0.0522
     13 C11         2.0582    0.8524    1.6488 C.ar        1 HS4      -0.0345
     14 C8          2.6382    1.7943    0.7774 C.ar        1 HS4      -0.0522
     15 C2          3.3121    2.9284    1.2848 C.ar        1 HS4      -0.0178
     16 C1          3.8371    3.9210    0.4039 C.ar        1 HS4      -0.0179
     17 C4          3.2603    5.2154    0.3384 C.ar        1 HS4      -0.0540
     18 C7          3.7557    6.1883   -0.5492 C.ar        1 HS4      -0.0612
     19 C9          4.8514    5.8873   -1.3799 C.ar        1 HS4      -0.0617
     20 C6          5.4432    4.6133   -1.3262 C.ar        1 HS4      -0.0612
     21 C3          4.9374    3.6385   -0.4443 C.ar        1 HS4      -0.0540
     22 H1         -0.5740   -0.8970    3.2235 H           1 HS4       0.1703
     23 H2         -0.1600   -3.0119    2.6187 H           1 HS4       0.0728
     24 H3          0.2707   -3.0614    4.3236 H           1 HS4       0.0728
     25 H4          2.9321    2.2615    4.5702 H           1 HS4       0.0637
     26 H5          3.9177    3.8751    3.0914 H           1 HS4       0.0624
     27 H6          1.5560    0.0558    1.2499 H           1 HS4       0.0637
     28 H7          2.5290    1.6622   -0.2336 H           1 HS4       0.0624
     29 H8          2.4536    5.4489    0.9207 H           1 HS4       0.0624
     30 H9          3.3213    7.1098   -0.5919 H           1 HS4       0.0618
     31 H10         5.2140    6.5934   -2.0223 H           1 HS4       0.0618
     32 H11         6.2375    4.3946   -1.9357 H           1 HS4       0.0618
     33 H12         5.3853    2.7209   -0.4231 H           1 HS4       0.0624
@<TRIPOS>BOND
     1     1     2   2
     2     2     3   2
     3     2     4  am
     4     2    10   1
     5     4     5   1
     6     5     6   1
     7     6     7   2
     8     6     8   1
     9     8     9   2
    10    10    11  ar
    11    10    13  ar
    12    11    12  ar
    13    12    15  ar
    14    13    14  ar
    15    14    15  ar
    16    15    16   1
    17    16    17  ar
    18    16    21  ar
    19    17    18  ar
    20    18    19  ar
    21    19    20  ar
    22    20    21  ar
    23     4    22   1
    24     5    23   1
    25     5    24   1
    26    11    25   1
    27    12    26   1
    28    13    27   1
    29    14    28   1
    30    17    29   1
    31    18    30   1
    32    19    31   1
    33    20    32   1
    34    21    33   1
@<TRIPOS>SUBSTRUCTURE
     1  HS4      5

