@<TRIPOS>MOLECULE
3f17_ligand_011
    33    34
SMALL
GAST_HUCK
****
This file was generated by PARSER (from files_GN.cpp)

@<TRIPOS>ATOM
      1 O4         -0.5058   -0.9132    4.0132 O.2         1 HS4      -0.1501
      2 S1          0.9379   -0.4669    4.5098 S.o2        1 HS4       0.0703
      3 O3          0.7159    0.7456    5.5171 O.2         1 HS4      -0.1501
      4 N1          1.6412   -1.7164    5.4004 N.am        1 HS4      -0.2276
      5 C12         2.0787   -2.9285    4.7891 C.3         1 HS4       0.1298
      6 C14         0.9663   -3.7933    4.4432 C.2         1 HS4       0.3057
      7 O1          0.6809   -3.9785    3.2678 O.2         1 HS4      -0.3264
      8 N2          0.2437   -4.3502    5.3995 N.2         1 HS4       0.0367
      9 O2         -0.7322   -5.0319    5.2087 O.2         1 HS4      -0.1732
     10 C13         1.9290    0.0889    3.1898 C.ar        1 HS4       0.1083
     11 C10         1.8186   -0.5146    1.9236 C.ar        1 HS4      -0.0345
     12 C5          2.6380   -0.0954    0.8603 C.ar        1 HS4      -0.0522
     13 C11         2.8661    1.1264    3.3794 C.ar        1 HS4      -0.0345
     14 C8          3.6952    1.5336    2.3175 C.ar        1 HS4      -0.0522
     15 C2          3.5980    0.9292    1.0446 C.ar        1 HS4      -0.0178
     16 C1          4.4658    1.3152   -0.0192 C.ar        1 HS4      -0.0179
     17 C4          5.8636    1.4158    0.1884 C.ar        1 HS4      -0.0540
     18 C7          6.7276    1.7810   -0.8636 C.ar        1 HS4      -0.0612
     19 C9          6.2065    2.0551   -2.1371 C.ar        1 HS4      -0.0617
     20 C6          4.8206    1.9679   -2.3621 C.ar        1 HS4      -0.0612
     21 C3          3.9593    1.5953   -1.3146 C.ar        1 HS4      -0.0540
     22 H1          1.5533   -1.6978    6.3723 H           1 HS4       0.1703
     23 H2          2.7389   -3.4498    5.4880 H           1 HS4       0.0728
     24 H3          2.6656   -2.6956    3.8996 H           1 HS4       0.0728
     25 H4          1.1485   -1.2736    1.7654 H           1 HS4       0.0637
     26 H5          2.5527   -0.5718   -0.0411 H           1 HS4       0.0624
     27 H6          2.9530    1.5905    4.2866 H           1 HS4       0.0637
     28 H7          4.3647    2.2917    2.4862 H           1 HS4       0.0624
     29 H8          6.2683    1.2001    1.1039 H           1 HS4       0.0624
     30 H9          7.7336    1.8404   -0.6985 H           1 HS4       0.0618
     31 H10         6.8318    2.3209   -2.8987 H           1 HS4       0.0618
     32 H11         4.4405    2.1753   -3.2870 H           1 HS4       0.0618
     33 H12         2.9523    1.5476   -1.4985 H           1 HS4       0.0624
@<TRIPOS>BOND
     1     1     2   2
     2     2     3   2
     3     2     4  am
     4     2    10   1
     5     4     5   1
     6     5     6   1
     7     6     7   2
     8     6     8   1
     9     8     9   2
    10    10    11  ar
    11    10    13  ar
    12    11    12  ar
    13    12    15  ar
    14    13    14  ar
    15    14    15  ar
    16    15    16   1
    17    16    17  ar
    18    16    21  ar
    19    17    18  ar
    20    18    19  ar
    21    19    20  ar
    22    20    21  ar
    23     4    22   1
    24     5    23   1
    25     5    24   1
    26    11    25   1
    27    12    26   1
    28    13    27   1
    29    14    28   1
    30    17    29   1
    31    18    30   1
    32    19    31   1
    33    20    32   1
    34    21    33   1
@<TRIPOS>SUBSTRUCTURE
     1  HS4      5

