@<TRIPOS>MOLECULE
3f17_ligand_026
    33    34
SMALL
GAST_HUCK
****
This file was generated by PARSER (from files_GN.cpp)

@<TRIPOS>ATOM
      1 O4          9.3109   -9.4802   12.1940 O.2         1 HS4      -0.1501
      2 S1          9.6235   -9.0332   10.6997 S.o2        1 HS4       0.0703
      3 O3         10.7856   -7.9540   10.8253 O.2         1 HS4      -0.1501
      4 N1         10.1693  -10.3671    9.8213 N.am        1 HS4      -0.2276
      5 C12        11.4987  -10.4715    9.3230 C.3         1 HS4       0.1298
      6 C14        11.7284   -9.6148    8.1740 C.2         1 HS4       0.3057
      7 O1         12.4932   -8.6629    8.2658 O.2         1 HS4      -0.3264
      8 N2         11.1225   -9.8741    7.0288 N.2         1 HS4       0.0367
      9 O2         11.2527   -9.2271    6.0223 O.2         1 HS4      -0.1732
     10 C13         8.2740   -8.2072    9.9786 C.ar        1 HS4       0.1083
     11 C10         7.8908   -8.4804    8.6512 C.ar        1 HS4      -0.0345
     12 C5          6.8028   -7.8035    8.0748 C.ar        1 HS4      -0.0522
     13 C11         7.5553   -7.2495   10.7192 C.ar        1 HS4      -0.0345
     14 C8          6.4759   -6.5661   10.1318 C.ar        1 HS4      -0.0522
     15 C2          6.0749   -6.8199    8.7932 C.ar        1 HS4      -0.0178
     16 C1          4.9796   -6.1085    8.1863 C.ar        1 HS4      -0.0179
     17 C4          3.8760   -5.6500    8.9552 C.ar        1 HS4      -0.0540
     18 C7          2.8102   -4.9477    8.3627 C.ar        1 HS4      -0.0612
     19 C9          2.8106   -4.7015    6.9800 C.ar        1 HS4      -0.0617
     20 C6          3.8843   -5.1497    6.1939 C.ar        1 HS4      -0.0612
     21 C3          4.9582   -5.8344    6.7918 C.ar        1 HS4      -0.0540
     22 H1          9.6062  -11.1586    9.8020 H           1 HS4       0.1703
     23 H2         11.6771  -11.5092    9.0328 H           1 HS4       0.0728
     24 H3         12.1914  -10.2406   10.1377 H           1 HS4       0.0728
     25 H4          8.3862   -9.1846    8.0981 H           1 HS4       0.0637
     26 H5          6.5429   -8.0565    7.1174 H           1 HS4       0.0624
     27 H6          7.8183   -7.0341   11.6860 H           1 HS4       0.0637
     28 H7          5.9930   -5.8673   10.7004 H           1 HS4       0.0624
     29 H8          3.8223   -5.8327    9.9610 H           1 HS4       0.0624
     30 H9          2.0250   -4.6306    8.9383 H           1 HS4       0.0618
     31 H10         2.0321   -4.1956    6.5481 H           1 HS4       0.0618
     32 H11         3.8947   -4.9604    5.1871 H           1 HS4       0.0618
     33 H12         5.7365   -6.1155    6.1874 H           1 HS4       0.0624
@<TRIPOS>BOND
     1     1     2   2
     2     2     3   2
     3     2     4  am
     4     2    10   1
     5     4     5   1
     6     5     6   1
     7     6     7   2
     8     6     8   1
     9     8     9   2
    10    10    11  ar
    11    10    13  ar
    12    11    12  ar
    13    12    15  ar
    14    13    14  ar
    15    14    15  ar
    16    15    16   1
    17    16    17  ar
    18    16    21  ar
    19    17    18  ar
    20    18    19  ar
    21    19    20  ar
    22    20    21  ar
    23     4    22   1
    24     5    23   1
    25     5    24   1
    26    11    25   1
    27    12    26   1
    28    13    27   1
    29    14    28   1
    30    17    29   1
    31    18    30   1
    32    19    31   1
    33    20    32   1
    34    21    33   1
@<TRIPOS>SUBSTRUCTURE
     1  HS4      5

