@<TRIPOS>MOLECULE
3f17_ligand_034
    33    34
SMALL
GAST_HUCK
****
This file was generated by PARSER (from files_GN.cpp)

@<TRIPOS>ATOM
      1 O4          0.7664    1.2359    5.0716 O.2         1 HS4      -0.1501
      2 S1          1.4635    0.5734    3.8041 S.o2        1 HS4       0.0703
      3 O3          0.4364    0.8164    2.6136 O.2         1 HS4      -0.1501
      4 N1          2.8865    1.4280    3.5041 N.am        1 HS4      -0.2276
      5 C12         3.6591    1.2663    2.3146 C.3         1 HS4       0.1298
      6 C14         3.8219    2.5398    1.6533 C.2         1 HS4       0.3057
      7 O1          3.2819    2.7347    0.5710 O.2         1 HS4      -0.3264
      8 N2          4.5890    3.4650    2.1960 N.2         1 HS4       0.0367
      9 O2          4.8100    4.5416    1.7060 O.2         1 HS4      -0.1732
     10 C13         1.6896   -1.1357    4.0755 C.ar        1 HS4       0.1083
     11 C10         2.1565   -1.9602    3.0294 C.ar        1 HS4      -0.0345
     12 C5          2.3196   -3.3462    3.2294 C.ar        1 HS4      -0.0522
     13 C11         1.3953   -1.7155    5.3266 C.ar        1 HS4      -0.0345
     14 C8          1.5491   -3.1014    5.5233 C.ar        1 HS4      -0.0522
     15 C2          2.0089   -3.9307    4.4770 C.ar        1 HS4      -0.0178
     16 C1          2.1218   -5.3301    4.6651 C.ar        1 HS4      -0.0179
     17 C4          3.3868   -5.9618    4.6583 C.ar        1 HS4      -0.0540
     18 C7          3.4881   -7.3552    4.8459 C.ar        1 HS4      -0.0612
     19 C9          2.3284   -8.1289    5.0329 C.ar        1 HS4      -0.0617
     20 C6          1.0651   -7.5104    5.0360 C.ar        1 HS4      -0.0612
     21 C3          0.9618   -6.1162    4.8560 C.ar        1 HS4      -0.0540
     22 H1          3.1996    2.0471    4.1867 H           1 HS4       0.1703
     23 H2          3.1854    0.5503    1.6382 H           1 HS4       0.0728
     24 H3          4.6390    0.8615    2.5765 H           1 HS4       0.0728
     25 H4          2.3721   -1.5632    2.1107 H           1 HS4       0.0637
     26 H5          2.6490   -3.9246    2.4513 H           1 HS4       0.0624
     27 H6          1.0616   -1.1363    6.1012 H           1 HS4       0.0637
     28 H7          1.3240   -3.4989    6.4369 H           1 HS4       0.0624
     29 H8          4.2413   -5.4147    4.5252 H           1 HS4       0.0624
     30 H9          4.4056   -7.8099    4.8458 H           1 HS4       0.0618
     31 H10         2.4004   -9.1435    5.1646 H           1 HS4       0.0618
     32 H11         0.2228   -8.0764    5.1641 H           1 HS4       0.0618
     33 H12         0.0345   -5.6857    4.8545 H           1 HS4       0.0624
@<TRIPOS>BOND
     1     1     2   2
     2     2     3   2
     3     2     4  am
     4     2    10   1
     5     4     5   1
     6     5     6   1
     7     6     7   2
     8     6     8   1
     9     8     9   2
    10    10    11  ar
    11    10    13  ar
    12    11    12  ar
    13    12    15  ar
    14    13    14  ar
    15    14    15  ar
    16    15    16   1
    17    16    17  ar
    18    16    21  ar
    19    17    18  ar
    20    18    19  ar
    21    19    20  ar
    22    20    21  ar
    23     4    22   1
    24     5    23   1
    25     5    24   1
    26    11    25   1
    27    12    26   1
    28    13    27   1
    29    14    28   1
    30    17    29   1
    31    18    30   1
    32    19    31   1
    33    20    32   1
    34    21    33   1
@<TRIPOS>SUBSTRUCTURE
     1  HS4      5

