@<TRIPOS>MOLECULE
3f17_ligand_021
    33    34
SMALL
GAST_HUCK
****
This file was generated by PARSER (from files_GN.cpp)

@<TRIPOS>ATOM
      1 O4         10.8861   -7.6202    9.8590 O.2         1 HS4      -0.1501
      2 S1          9.7546   -8.5922    9.2929 S.o2        1 HS4       0.0703
      3 O3         10.4510   -9.3773    8.0923 O.2         1 HS4      -0.1501
      4 N1          9.3795   -9.7409   10.4663 N.am        1 HS4      -0.2276
      5 C12         8.5621   -9.4375   11.5953 C.3         1 HS4       0.1298
      6 C14         7.1619   -9.3822   11.2319 C.2         1 HS4       0.3057
      7 O1          6.7361  -10.1675   10.3914 O.2         1 HS4      -0.3264
      8 N2          6.3717   -8.4833   11.7746 N.2         1 HS4       0.0367
      9 O2          5.1985   -8.3616   11.5320 O.2         1 HS4      -0.1732
     10 C13         8.3566   -7.7313    8.7303 C.ar        1 HS4       0.1083
     11 C10         7.8984   -7.8591    7.4022 C.ar        1 HS4      -0.0345
     12 C5          6.7128   -7.2241    6.9871 C.ar        1 HS4      -0.0522
     13 C11         7.6102   -6.9583    9.6360 C.ar        1 HS4      -0.0345
     14 C8          6.4323   -6.3083    9.2149 C.ar        1 HS4      -0.0522
     15 C2          5.9464   -6.4420    7.8895 C.ar        1 HS4      -0.0178
     16 C1          4.7228   -5.8198    7.4814 C.ar        1 HS4      -0.0179
     17 C4          3.6892   -5.5701    8.4247 C.ar        1 HS4      -0.0540
     18 C7          2.4951   -4.9349    8.0386 C.ar        1 HS4      -0.0612
     19 C9          2.3019   -4.5423    6.7038 C.ar        1 HS4      -0.0617
     20 C6          3.3081   -4.7943    5.7495 C.ar        1 HS4      -0.0612
     21 C3          4.5052   -5.4268    6.1382 C.ar        1 HS4      -0.0540
     22 H1          9.4124  -10.6809   10.2035 H           1 HS4       0.1703
     23 H2          8.8972   -8.5062   12.0621 H           1 HS4       0.0728
     24 H3          8.7008  -10.2385   12.3283 H           1 HS4       0.0728
     25 H4          8.4199   -8.4308    6.7311 H           1 HS4       0.0637
     26 H5          6.3981   -7.3592    6.0239 H           1 HS4       0.0624
     27 H6          7.9062   -6.8563   10.6094 H           1 HS4       0.0637
     28 H7          5.9122   -5.7586    9.9034 H           1 HS4       0.0624
     29 H8          3.7911   -5.8585    9.4000 H           1 HS4       0.0624
     30 H9          1.7617   -4.7588    8.7304 H           1 HS4       0.0618
     31 H10         1.4330   -4.0755    6.4234 H           1 HS4       0.0618
     32 H11         3.1711   -4.5028    4.7799 H           1 HS4       0.0618
     33 H12         5.2284   -5.5747    5.4274 H           1 HS4       0.0624
@<TRIPOS>BOND
     1     1     2   2
     2     2     3   2
     3     2     4  am
     4     2    10   1
     5     4     5   1
     6     5     6   1
     7     6     7   2
     8     6     8   1
     9     8     9   2
    10    10    11  ar
    11    10    13  ar
    12    11    12  ar
    13    12    15  ar
    14    13    14  ar
    15    14    15  ar
    16    15    16   1
    17    16    17  ar
    18    16    21  ar
    19    17    18  ar
    20    18    19  ar
    21    19    20  ar
    22    20    21  ar
    23     4    22   1
    24     5    23   1
    25     5    24   1
    26    11    25   1
    27    12    26   1
    28    13    27   1
    29    14    28   1
    30    17    29   1
    31    18    30   1
    32    19    31   1
    33    20    32   1
    34    21    33   1
@<TRIPOS>SUBSTRUCTURE
     1  HS4      5

