@<TRIPOS>MOLECULE
3f17_ligand_033
    33    34
SMALL
GAST_HUCK
****
This file was generated by PARSER (from files_GN.cpp)

@<TRIPOS>ATOM
      1 O4          0.7813    0.8468    5.3116 O.2         1 HS4      -0.1501
      2 S1          1.2806   -0.4165    4.4787 S.o2        1 HS4       0.0703
      3 O3          2.6639    0.0235    3.8208 O.2         1 HS4      -0.1501
      4 N1          1.6054   -1.6232    5.6125 N.am        1 HS4      -0.2276
      5 C12         2.0386   -2.9361    5.2642 C.3         1 HS4       0.1298
      6 C14         0.9196   -3.8548    5.2216 C.2         1 HS4       0.3057
      7 O1         -0.0139   -3.6068    4.4529 O.2         1 HS4      -0.3264
      8 N2          0.9297   -4.9589    5.9658 N.2         1 HS4       0.0367
      9 O2          0.0462   -5.7764    5.9595 O.2         1 HS4      -0.1732
     10 C13         0.1171   -0.8449    3.2524 C.ar        1 HS4       0.1083
     11 C10        -1.0590   -0.0847    3.0634 C.ar        1 HS4      -0.0345
     12 C5         -2.0251   -0.4822    2.1219 C.ar        1 HS4      -0.0522
     13 C11         0.3364   -1.9755    2.4415 C.ar        1 HS4      -0.0345
     14 C8         -0.6114   -2.3521    1.4727 C.ar        1 HS4      -0.0522
     15 C2         -1.8117   -1.6278    1.3202 C.ar        1 HS4      -0.0178
     16 C1         -2.8170   -2.0701    0.4323 C.ar        1 HS4      -0.0179
     17 C4         -4.0286   -2.5986    0.9378 C.ar        1 HS4      -0.0540
     18 C7         -5.0125   -3.0919    0.0652 C.ar        1 HS4      -0.0612
     19 C9         -4.8064   -3.0565   -1.3259 C.ar        1 HS4      -0.0617
     20 C6         -3.6121   -2.5215   -1.8394 C.ar        1 HS4      -0.0612
     21 C3         -2.6190   -2.0383   -0.9691 C.ar        1 HS4      -0.0540
     22 H1          1.4957   -1.4259    6.5574 H           1 HS4       0.1703
     23 H2          2.7668   -3.2442    6.0199 H           1 HS4       0.0728
     24 H3          2.5403   -2.9454    4.2952 H           1 HS4       0.0728
     25 H4         -1.2245    0.7603    3.6165 H           1 HS4       0.0637
     26 H5         -2.8798    0.0746    2.0279 H           1 HS4       0.0624
     27 H6          1.1917   -2.5295    2.5481 H           1 HS4       0.0637
     28 H7         -0.4412   -3.1854    0.9078 H           1 HS4       0.0624
     29 H8         -4.1900   -2.6445    1.9475 H           1 HS4       0.0624
     30 H9         -5.8756   -3.4880    0.4431 H           1 HS4       0.0618
     31 H10        -5.5212   -3.4211   -1.9580 H           1 HS4       0.0618
     32 H11        -3.4646   -2.4918   -2.8562 H           1 HS4       0.0618
     33 H12        -1.7526   -1.6527   -1.3654 H           1 HS4       0.0624
@<TRIPOS>BOND
     1     1     2   2
     2     2     3   2
     3     2     4  am
     4     2    10   1
     5     4     5   1
     6     5     6   1
     7     6     7   2
     8     6     8   1
     9     8     9   2
    10    10    11  ar
    11    10    13  ar
    12    11    12  ar
    13    12    15  ar
    14    13    14  ar
    15    14    15  ar
    16    15    16   1
    17    16    17  ar
    18    16    21  ar
    19    17    18  ar
    20    18    19  ar
    21    19    20  ar
    22    20    21  ar
    23     4    22   1
    24     5    23   1
    25     5    24   1
    26    11    25   1
    27    12    26   1
    28    13    27   1
    29    14    28   1
    30    17    29   1
    31    18    30   1
    32    19    31   1
    33    20    32   1
    34    21    33   1
@<TRIPOS>SUBSTRUCTURE
     1  HS4      5

