@<TRIPOS>MOLECULE
3f17_ligand_037
    33    34
SMALL
GAST_HUCK
****
This file was generated by PARSER (from files_GN.cpp)

@<TRIPOS>ATOM
      1 O4          5.1845   -8.1441    9.3884 O.2         1 HS4      -0.1501
      2 S1          5.5053   -6.8458    8.5251 S.o2        1 HS4       0.0703
      3 O3          4.8931   -5.7111    9.4483 O.2         1 HS4      -0.1501
      4 N1          7.1694   -6.5372    8.4220 N.am        1 HS4      -0.2276
      5 C12         8.1703   -7.5498    8.3759 C.3         1 HS4       0.1298
      6 C14         8.1842   -8.3806    9.5643 C.2         1 HS4       0.3057
      7 O1          7.6775   -9.4996    9.5086 O.2         1 HS4      -0.3264
      8 N2          8.7091   -7.9247   10.6875 N.2         1 HS4       0.0367
      9 O2          8.7368   -8.5454   11.7213 O.2         1 HS4      -0.1732
     10 C13         4.5792   -6.8868    7.0489 C.ar        1 HS4       0.1083
     11 C10         3.4123   -7.6746    6.9553 C.ar        1 HS4      -0.0345
     12 C5          2.6516   -7.6870    5.7718 C.ar        1 HS4      -0.0522
     13 C11         4.9702   -6.1026    5.9440 C.ar        1 HS4      -0.0345
     14 C8          4.1897   -6.0865    4.7731 C.ar        1 HS4      -0.0522
     15 C2          3.0347   -6.8899    4.6718 C.ar        1 HS4      -0.0178
     16 C1          2.2690   -6.9038    3.4795 C.ar        1 HS4      -0.0179
     17 C4          1.5305   -5.7651    3.0829 C.ar        1 HS4      -0.0540
     18 C7          0.7622   -5.7890    1.9017 C.ar        1 HS4      -0.0612
     19 C9          0.7410   -6.9437    1.0998 C.ar        1 HS4      -0.0617
     20 C6          1.4809   -8.0774    1.4784 C.ar        1 HS4      -0.0612
     21 C3          2.2373   -8.0601    2.6674 C.ar        1 HS4      -0.0540
     22 H1          7.4353   -5.6395    8.1478 H           1 HS4       0.1703
     23 H2          9.1412   -7.0515    8.2789 H           1 HS4       0.0728
     24 H3          8.0304   -8.1491    7.4693 H           1 HS4       0.0728
     25 H4          3.0963   -8.2363    7.7481 H           1 HS4       0.0637
     26 H5          1.8058   -8.2628    5.7287 H           1 HS4       0.0624
     27 H6          5.8117   -5.5288    5.9908 H           1 HS4       0.0637
     28 H7          4.4824   -5.4963    3.9902 H           1 HS4       0.0624
     29 H8          1.5295   -4.9187    3.6594 H           1 HS4       0.0624
     30 H9          0.2218   -4.9655    1.6274 H           1 HS4       0.0618
     31 H10         0.1872   -6.9576    0.2395 H           1 HS4       0.0618
     32 H11         1.4683   -8.9152    0.8925 H           1 HS4       0.0618
     33 H12         2.7742   -8.8935    2.9259 H           1 HS4       0.0624
@<TRIPOS>BOND
     1     1     2   2
     2     2     3   2
     3     2     4  am
     4     2    10   1
     5     4     5   1
     6     5     6   1
     7     6     7   2
     8     6     8   1
     9     8     9   2
    10    10    11  ar
    11    10    13  ar
    12    11    12  ar
    13    12    15  ar
    14    13    14  ar
    15    14    15  ar
    16    15    16   1
    17    16    17  ar
    18    16    21  ar
    19    17    18  ar
    20    18    19  ar
    21    19    20  ar
    22    20    21  ar
    23     4    22   1
    24     5    23   1
    25     5    24   1
    26    11    25   1
    27    12    26   1
    28    13    27   1
    29    14    28   1
    30    17    29   1
    31    18    30   1
    32    19    31   1
    33    20    32   1
    34    21    33   1
@<TRIPOS>SUBSTRUCTURE
     1  HS4      5

