@<TRIPOS>MOLECULE
3f17_ligand_035
    33    34
SMALL
GAST_HUCK
****
This file was generated by PARSER (from files_GN.cpp)

@<TRIPOS>ATOM
      1 O4          3.1338   -5.0843    9.3734 O.2         1 HS4      -0.1501
      2 S1          3.6157   -6.0658    8.2201 S.o2        1 HS4       0.0703
      3 O3          2.5207   -7.1991    8.0047 O.2         1 HS4      -0.1501
      4 N1          3.8159   -5.1754    6.7987 N.am        1 HS4      -0.2276
      5 C12         2.7387   -4.5429    6.1146 C.3         1 HS4       0.1298
      6 C14         2.0018   -5.4895    5.3039 C.2         1 HS4       0.3057
      7 O1          2.5521   -6.0108    4.3413 O.2         1 HS4      -0.3264
      8 N2          0.7613   -5.8050    5.6288 N.2         1 HS4       0.0367
      9 O2          0.0780   -6.5931    5.0314 O.2         1 HS4      -0.1732
     10 C13         5.0678   -6.8467    8.7922 C.ar        1 HS4       0.1083
     11 C10         5.0415   -7.6062    9.9826 C.ar        1 HS4      -0.0345
     12 C5          6.2126   -8.2295   10.4560 C.ar        1 HS4      -0.0522
     13 C11         6.2816   -6.7238    8.0853 C.ar        1 HS4      -0.0345
     14 C8          7.4467   -7.3583    8.5519 C.ar        1 HS4      -0.0522
     15 C2          7.4265   -8.1206    9.7410 C.ar        1 HS4      -0.0178
     16 C1          8.5993   -8.7778   10.1936 C.ar        1 HS4      -0.0179
     17 C4          9.1703   -8.4597   11.4487 C.ar        1 HS4      -0.0540
     18 C7         10.3371   -9.1132   11.8894 C.ar        1 HS4      -0.0612
     19 C9         10.9400  -10.0966   11.0847 C.ar        1 HS4      -0.0617
     20 C6         10.3758  -10.4312    9.8416 C.ar        1 HS4      -0.0612
     21 C3          9.2163   -9.7700    9.3946 C.ar        1 HS4      -0.0540
     22 H1          4.6652   -5.2412    6.3386 H           1 HS4       0.1703
     23 H2          3.1514   -3.7658    5.4660 H           1 HS4       0.0728
     24 H3          2.0846   -4.0456    6.8364 H           1 HS4       0.0728
     25 H4          4.1741   -7.7071   10.5164 H           1 HS4       0.0637
     26 H5          6.1684   -8.7791   11.3174 H           1 HS4       0.0624
     27 H6          6.3355   -6.1701    7.2289 H           1 HS4       0.0637
     28 H7          8.3147   -7.2466    8.0229 H           1 HS4       0.0624
     29 H8          8.7508   -7.7399   12.0432 H           1 HS4       0.0624
     30 H9         10.7504   -8.8718   12.7931 H           1 HS4       0.0618
     31 H10        11.7907  -10.5654   11.4017 H           1 HS4       0.0618
     32 H11        10.8089  -11.1557    9.2634 H           1 HS4       0.0618
     33 H12         8.8195  -10.0274    8.4871 H           1 HS4       0.0624
@<TRIPOS>BOND
     1     1     2   2
     2     2     3   2
     3     2     4  am
     4     2    10   1
     5     4     5   1
     6     5     6   1
     7     6     7   2
     8     6     8   1
     9     8     9   2
    10    10    11  ar
    11    10    13  ar
    12    11    12  ar
    13    12    15  ar
    14    13    14  ar
    15    14    15  ar
    16    15    16   1
    17    16    17  ar
    18    16    21  ar
    19    17    18  ar
    20    18    19  ar
    21    19    20  ar
    22    20    21  ar
    23     4    22   1
    24     5    23   1
    25     5    24   1
    26    11    25   1
    27    12    26   1
    28    13    27   1
    29    14    28   1
    30    17    29   1
    31    18    30   1
    32    19    31   1
    33    20    32   1
    34    21    33   1
@<TRIPOS>SUBSTRUCTURE
     1  HS4      5

