@<TRIPOS>MOLECULE
3f17_ligand_004
    33    34
SMALL
GAST_HUCK
****
This file was generated by PARSER (from files_GN.cpp)

@<TRIPOS>ATOM
      1 O4          0.9575   -4.7801    3.8063 O.2         1 HS4      -0.1501
      2 S1          2.0326   -3.7301    4.3302 S.o2        1 HS4       0.0703
      3 O3          2.9218   -3.4415    3.0425 O.2         1 HS4      -0.1501
      4 N1          1.1319   -2.3807    4.7697 N.am        1 HS4      -0.2276
      5 C12         1.6607   -1.0602    4.7151 C.3         1 HS4       0.1298
      6 C14         0.5914   -0.1166    4.4462 C.2         1 HS4       0.3057
      7 O1          0.4769    0.8877    5.1305 O.2         1 HS4      -0.3264
      8 N2         -0.2532   -0.3697    3.4619 N.2         1 HS4       0.0367
      9 O2         -1.1881    0.3222    3.1597 O.2         1 HS4      -0.1732
     10 C13         2.9554   -4.5218    5.5755 C.ar        1 HS4       0.1083
     11 C10         2.4607   -4.5369    6.8878 C.ar        1 HS4      -0.0345
     12 C5          3.1914   -5.1544    7.9182 C.ar        1 HS4      -0.0522
     13 C11         4.1653   -5.1765    5.2882 C.ar        1 HS4      -0.0345
     14 C8          4.8945   -5.8079    6.3120 C.ar        1 HS4      -0.0522
     15 C2          4.4330   -5.8043    7.6595 C.ar        1 HS4      -0.0178
     16 C1          5.1886   -6.4181    8.7152 C.ar        1 HS4      -0.0179
     17 C4          6.6109   -6.4243    8.7030 C.ar        1 HS4      -0.0540
     18 C7          7.3534   -7.0113    9.7398 C.ar        1 HS4      -0.0612
     19 C9          6.6939   -7.6098   10.8243 C.ar        1 HS4      -0.0617
     20 C6          5.2919   -7.6343   10.8625 C.ar        1 HS4      -0.0612
     21 C3          4.5484   -7.0426    9.8244 C.ar        1 HS4      -0.0540
     22 H1          0.3363   -2.5374    5.2994 H           1 HS4       0.1703
     23 H2          2.3944   -0.9625    3.9117 H           1 HS4       0.0728
     24 H3          2.1606   -0.8468    5.6639 H           1 HS4       0.0728
     25 H4          1.5674   -4.0947    7.1228 H           1 HS4       0.0637
     26 H5          2.8088   -5.1095    8.8641 H           1 HS4       0.0624
     27 H6          4.5329   -5.2081    4.3328 H           1 HS4       0.0637
     28 H7          5.7638   -6.2786    6.0479 H           1 HS4       0.0624
     29 H8          7.1326   -5.9817    7.9403 H           1 HS4       0.0624
     30 H9          8.3743   -6.9925    9.7024 H           1 HS4       0.0618
     31 H10         7.2356   -8.0313   11.5794 H           1 HS4       0.0618
     32 H11         4.8075   -8.0936   11.6368 H           1 HS4       0.0618
     33 H12         3.5276   -7.0905    9.8950 H           1 HS4       0.0624
@<TRIPOS>BOND
     1     1     2   2
     2     2     3   2
     3     2     4  am
     4     2    10   1
     5     4     5   1
     6     5     6   1
     7     6     7   2
     8     6     8   1
     9     8     9   2
    10    10    11  ar
    11    10    13  ar
    12    11    12  ar
    13    12    15  ar
    14    13    14  ar
    15    14    15  ar
    16    15    16   1
    17    16    17  ar
    18    16    21  ar
    19    17    18  ar
    20    18    19  ar
    21    19    20  ar
    22    20    21  ar
    23     4    22   1
    24     5    23   1
    25     5    24   1
    26    11    25   1
    27    12    26   1
    28    13    27   1
    29    14    28   1
    30    17    29   1
    31    18    30   1
    32    19    31   1
    33    20    32   1
    34    21    33   1
@<TRIPOS>SUBSTRUCTURE
     1  HS4      5

