@<TRIPOS>MOLECULE
3f17_ligand_020
    33    34
SMALL
GAST_HUCK
****
This file was generated by PARSER (from files_GN.cpp)

@<TRIPOS>ATOM
      1 O4          4.9325   -7.5958    6.1804 O.2         1 HS4      -0.1501
      2 S1          3.4290   -7.1494    6.4397 S.o2        1 HS4       0.0703
      3 O3          3.0285   -7.8732    7.7975 O.2         1 HS4      -0.1501
      4 N1          3.4950   -5.4835    6.7077 N.am        1 HS4      -0.2276
      5 C12         2.3619   -4.6790    7.0176 C.3         1 HS4       0.1298
      6 C14         1.8876   -3.9798    5.8427 C.2         1 HS4       0.3057
      7 O1          0.8048   -4.2739    5.3512 O.2         1 HS4      -0.3264
      8 N2          2.6253   -3.0095    5.3288 N.2         1 HS4       0.0367
      9 O2          2.3077   -2.3597    4.3701 O.2         1 HS4      -0.1732
     10 C13         2.4055   -7.6647    5.1282 C.ar        1 HS4       0.1083
     11 C10         1.0156   -7.4495    5.2111 C.ar        1 HS4      -0.0345
     12 C5          0.1680   -7.8449    4.1656 C.ar        1 HS4      -0.0522
     13 C11         2.9332   -8.3152    3.9931 C.ar        1 HS4      -0.0345
     14 C8          2.0817   -8.7436    2.9575 C.ar        1 HS4      -0.0522
     15 C2          0.6904   -8.5052    3.0342 C.ar        1 HS4      -0.0178
     16 C1         -0.1720   -8.9509    2.0032 C.ar        1 HS4      -0.0179
     17 C4         -0.4785  -10.3243    1.8741 C.ar        1 HS4      -0.0540
     18 C7         -1.3400  -10.7637    0.8541 C.ar        1 HS4      -0.0612
     19 C9         -1.9040   -9.8348   -0.0412 C.ar        1 HS4      -0.0617
     20 C6         -1.6043   -8.4650    0.0804 C.ar        1 HS4      -0.0612
     21 C3         -0.7421   -8.0252    1.1005 C.ar        1 HS4      -0.0540
     22 H1          4.3482   -5.0331    6.5589 H           1 HS4       0.1703
     23 H2          2.6630   -3.9541    7.7718 H           1 HS4       0.0728
     24 H3          1.5695   -5.2918    7.4623 H           1 HS4       0.0728
     25 H4          0.6060   -7.0062    6.0367 H           1 HS4       0.0637
     26 H5         -0.8386   -7.6630    4.2402 H           1 HS4       0.0624
     27 H6          3.9321   -8.4935    3.9088 H           1 HS4       0.0637
     28 H7          2.4812   -9.2240    2.1401 H           1 HS4       0.0624
     29 H8         -0.0822  -11.0070    2.5226 H           1 HS4       0.0624
     30 H9         -1.5631  -11.7559    0.7658 H           1 HS4       0.0618
     31 H10        -2.5304  -10.1551   -0.7824 H           1 HS4       0.0618
     32 H11        -2.0056   -7.7935   -0.5730 H           1 HS4       0.0618
     33 H12        -0.5183   -7.0248    1.1731 H           1 HS4       0.0624
@<TRIPOS>BOND
     1     1     2   2
     2     2     3   2
     3     2     4  am
     4     2    10   1
     5     4     5   1
     6     5     6   1
     7     6     7   2
     8     6     8   1
     9     8     9   2
    10    10    11  ar
    11    10    13  ar
    12    11    12  ar
    13    12    15  ar
    14    13    14  ar
    15    14    15  ar
    16    15    16   1
    17    16    17  ar
    18    16    21  ar
    19    17    18  ar
    20    18    19  ar
    21    19    20  ar
    22    20    21  ar
    23     4    22   1
    24     5    23   1
    25     5    24   1
    26    11    25   1
    27    12    26   1
    28    13    27   1
    29    14    28   1
    30    17    29   1
    31    18    30   1
    32    19    31   1
    33    20    32   1
    34    21    33   1
@<TRIPOS>SUBSTRUCTURE
     1  HS4      5

