@<TRIPOS>MOLECULE
3f17_ligand_018
    33    34
SMALL
GAST_HUCK
****
This file was generated by PARSER (from files_GN.cpp)

@<TRIPOS>ATOM
      1 O4          3.3033   -5.0347    9.3937 O.2         1 HS4      -0.1501
      2 S1          3.3086   -6.3629    8.5162 S.o2        1 HS4       0.0703
      3 O3          2.5720   -7.5281    9.3106 O.2         1 HS4      -0.1501
      4 N1          2.5224   -6.0496    7.0611 N.am        1 HS4      -0.2276
      5 C12         1.2765   -5.3662    6.9974 C.3         1 HS4       0.1298
      6 C14         1.3273   -4.3459    5.9652 C.2         1 HS4       0.3057
      7 O1          0.3755   -4.2064    5.2001 O.2         1 HS4      -0.3264
      8 N2          2.3813   -3.5426    5.9074 N.2         1 HS4       0.0367
      9 O2          2.5028   -2.6265    5.1360 O.2         1 HS4      -0.1732
     10 C13         4.9944   -6.7558    8.3388 C.ar        1 HS4       0.1083
     11 C10         5.5125   -7.2048    7.1101 C.ar        1 HS4      -0.0345
     12 C5          6.8737   -7.5444    6.9888 C.ar        1 HS4      -0.0522
     13 C11         5.8689   -6.6530    9.4384 C.ar        1 HS4      -0.0345
     14 C8          7.2284   -7.0086    9.3161 C.ar        1 HS4      -0.0522
     15 C2          7.7843   -7.4748    8.0832 C.ar        1 HS4      -0.0178
     16 C1          9.1822   -7.8813    7.9555 C.ar        1 HS4      -0.0179
     17 C4          9.7142   -8.4399    6.7490 C.ar        1 HS4      -0.0540
     18 C7         11.0540   -8.8598    6.6337 C.ar        1 HS4      -0.0612
     19 C9         11.9279   -8.7470    7.7255 C.ar        1 HS4      -0.0617
     20 C6         11.4542   -8.1896    8.9258 C.ar        1 HS4      -0.0612
     21 C3         10.1136   -7.7625    9.0304 C.ar        1 HS4      -0.0540
     22 H1          2.8369   -6.5201    6.2757 H           1 HS4       0.1703
     23 H2          1.0283   -4.8741    7.9442 H           1 HS4       0.0728
     24 H3          0.5029   -6.1064    6.7926 H           1 HS4       0.0728
     25 H4          4.9074   -7.2877    6.2934 H           1 HS4       0.0637
     26 H5          7.1704   -7.8460    6.0654 H           1 HS4       0.0624
     27 H6          5.5218   -6.3325   10.3452 H           1 HS4       0.0637
     28 H7          7.7903   -6.9441   10.1622 H           1 HS4       0.0624
     29 H8          9.1402   -8.5704    5.9193 H           1 HS4       0.0624
     30 H9         11.3966   -9.2499    5.7493 H           1 HS4       0.0618
     31 H10        12.9029   -9.0481    7.6438 H           1 HS4       0.0618
     32 H11        12.0914   -8.0873    9.7196 H           1 HS4       0.0618
     33 H12         9.8475   -7.3481    9.9232 H           1 HS4       0.0624
@<TRIPOS>BOND
     1     1     2   2
     2     2     3   2
     3     2     4  am
     4     2    10   1
     5     4     5   1
     6     5     6   1
     7     6     7   2
     8     6     8   1
     9     8     9   2
    10    10    11  ar
    11    10    13  ar
    12    11    12  ar
    13    12    15  ar
    14    13    14  ar
    15    14    15  ar
    16    15    16   1
    17    16    17  ar
    18    16    21  ar
    19    17    18  ar
    20    18    19  ar
    21    19    20  ar
    22    20    21  ar
    23     4    22   1
    24     5    23   1
    25     5    24   1
    26    11    25   1
    27    12    26   1
    28    13    27   1
    29    14    28   1
    30    17    29   1
    31    18    30   1
    32    19    31   1
    33    20    32   1
    34    21    33   1
@<TRIPOS>SUBSTRUCTURE
     1  HS4      5

