@<TRIPOS>MOLECULE
3f17_ligand_028
    33    34
SMALL
GAST_HUCK
****
This file was generated by PARSER (from files_GN.cpp)

@<TRIPOS>ATOM
      1 O4          9.1758   -9.1769   11.3449 O.2         1 HS4      -0.1501
      2 S1          9.0416   -8.9330    9.7784 S.o2        1 HS4       0.0703
      3 O3         10.1799   -7.8689    9.4592 O.2         1 HS4      -0.1501
      4 N1          9.4642  -10.3379    8.9478 N.am        1 HS4      -0.2276
      5 C12        10.2685  -10.3176    7.7744 C.3         1 HS4       0.1298
      6 C14        11.6799  -10.4295    8.0808 C.2         1 HS4       0.3057
      7 O1         12.4037   -9.4539    7.9208 O.2         1 HS4      -0.3264
      8 N2         12.1676  -11.5697    8.5324 N.2         1 HS4       0.0367
      9 O2         13.3204  -11.7564    8.8195 O.2         1 HS4      -0.1732
     10 C13         7.4856   -8.2940    9.3311 C.ar        1 HS4       0.1083
     11 C10         6.5305   -7.9954   10.3230 C.ar        1 HS4      -0.0345
     12 C5          5.2661   -7.4945    9.9601 C.ar        1 HS4      -0.0522
     13 C11         7.1744   -8.0580    7.9775 C.ar        1 HS4      -0.0345
     14 C8          5.9117   -7.5529    7.6174 C.ar        1 HS4      -0.0522
     15 C2          4.9312   -7.2736    8.6009 C.ar        1 HS4      -0.0178
     16 C1          3.6402   -6.7907    8.2315 C.ar        1 HS4      -0.0179
     17 C4          3.0342   -5.7186    8.9334 C.ar        1 HS4      -0.0540
     18 C7          1.7569   -5.2485    8.5744 C.ar        1 HS4      -0.0612
     19 C9          1.0621   -5.8424    7.5067 C.ar        1 HS4      -0.0617
     20 C6          1.6472   -6.9043    6.7957 C.ar        1 HS4      -0.0612
     21 C3          2.9244   -7.3745    7.1555 C.ar        1 HS4      -0.0540
     22 H1          9.3441  -11.1859    9.4043 H           1 HS4       0.1703
     23 H2         10.0610   -9.4074    7.2050 H           1 HS4       0.0728
     24 H3          9.9765  -11.1644    7.1499 H           1 HS4       0.0728
     25 H4          6.7434   -8.1497   11.3120 H           1 HS4       0.0637
     26 H5          4.5821   -7.3132   10.6996 H           1 HS4       0.0624
     27 H6          7.8616   -8.2527    7.2449 H           1 HS4       0.0637
     28 H7          5.7180   -7.3805    6.6269 H           1 HS4       0.0624
     29 H8          3.5235   -5.2598    9.7055 H           1 HS4       0.0624
     30 H9          1.3342   -4.4724    9.0884 H           1 HS4       0.0618
     31 H10         0.1334   -5.5031    7.2476 H           1 HS4       0.0618
     32 H11         1.1417   -7.3386    6.0203 H           1 HS4       0.0618
     33 H12         3.3183   -8.1610    6.6336 H           1 HS4       0.0624
@<TRIPOS>BOND
     1     1     2   2
     2     2     3   2
     3     2     4  am
     4     2    10   1
     5     4     5   1
     6     5     6   1
     7     6     7   2
     8     6     8   1
     9     8     9   2
    10    10    11  ar
    11    10    13  ar
    12    11    12  ar
    13    12    15  ar
    14    13    14  ar
    15    14    15  ar
    16    15    16   1
    17    16    17  ar
    18    16    21  ar
    19    17    18  ar
    20    18    19  ar
    21    19    20  ar
    22    20    21  ar
    23     4    22   1
    24     5    23   1
    25     5    24   1
    26    11    25   1
    27    12    26   1
    28    13    27   1
    29    14    28   1
    30    17    29   1
    31    18    30   1
    32    19    31   1
    33    20    32   1
    34    21    33   1
@<TRIPOS>SUBSTRUCTURE
     1  HS4      5

