@<TRIPOS>MOLECULE
3f17_ligand_000
    33    34
SMALL
GAST_HUCK
****
This file was generated by PARSER (from files_GN.cpp)

@<TRIPOS>ATOM
      1 O4          2.9320   -6.8469    5.4361 O.2         1 HS4      -0.1501
      2 S1          3.4973   -5.5643    6.1884 S.o2        1 HS4       0.0703
      3 O3          4.0440   -4.6515    5.0070 O.2         1 HS4      -0.1501
      4 N1          2.2413   -4.7630    6.9826 N.am        1 HS4      -0.2276
      5 C12         0.8625   -5.0509    6.7432 C.3         1 HS4       0.1298
      6 C14         0.3720   -4.6836    5.4262 C.2         1 HS4       0.3057
      7 O1         -0.7854   -4.9712    5.1431 O.2         1 HS4      -0.3264
      8 N2          1.1249   -4.0457    4.5490 N.2         1 HS4       0.0367
      9 O2          0.7683   -3.7136    3.4479 O.2         1 HS4      -0.1732
     10 C13         4.8305   -6.1223    7.1627 C.ar        1 HS4       0.1083
     11 C10         4.8673   -5.8935    8.5535 C.ar        1 HS4      -0.0345
     12 C5          5.9611   -6.3383    9.3161 C.ar        1 HS4      -0.0522
     13 C11         5.8962   -6.8150    6.5529 C.ar        1 HS4      -0.0345
     14 C8          6.9826   -7.2683    7.3180 C.ar        1 HS4      -0.0522
     15 C2          7.0420   -7.0301    8.7145 C.ar        1 HS4      -0.0178
     16 C1          8.1589   -7.4744    9.4889 C.ar        1 HS4      -0.0179
     17 C4          9.4787   -7.4164    8.9701 C.ar        1 HS4      -0.0540
     18 C7         10.5762   -7.8593    9.7304 C.ar        1 HS4      -0.0612
     19 C9         10.3782   -8.3674   11.0255 C.ar        1 HS4      -0.0617
     20 C6          9.0785   -8.4326   11.5568 C.ar        1 HS4      -0.0612
     21 C3          7.9808   -7.9903   10.7986 C.ar        1 HS4      -0.0540
     22 H1          2.4465   -3.9209    7.4231 H           1 HS4       0.1703
     23 H2          0.2856   -4.4999    7.4892 H           1 HS4       0.0728
     24 H3          0.6825   -6.1162    6.9115 H           1 HS4       0.0728
     25 H4          4.1071   -5.3906    9.0176 H           1 HS4       0.0637
     26 H5          5.9709   -6.1315   10.3192 H           1 HS4       0.0624
     27 H6          5.8871   -6.9958    5.5458 H           1 HS4       0.0637
     28 H7          7.7273   -7.7876    6.8452 H           1 HS4       0.0624
     29 H8          9.6559   -7.0374    8.0369 H           1 HS4       0.0624
     30 H9         11.5212   -7.8095    9.3405 H           1 HS4       0.0618
     31 H10        11.1742   -8.6921   11.5765 H           1 HS4       0.0618
     32 H11         8.9318   -8.8085   12.4959 H           1 HS4       0.0618
     33 H12         7.0454   -8.0664   11.2059 H           1 HS4       0.0624
@<TRIPOS>BOND
     1     1     2   2
     2     2     3   2
     3     2     4  am
     4     2    10   1
     5     4     5   1
     6     5     6   1
     7     6     7   2
     8     6     8   1
     9     8     9   2
    10    10    11  ar
    11    10    13  ar
    12    11    12  ar
    13    12    15  ar
    14    13    14  ar
    15    14    15  ar
    16    15    16   1
    17    16    17  ar
    18    16    21  ar
    19    17    18  ar
    20    18    19  ar
    21    19    20  ar
    22    20    21  ar
    23     4    22   1
    24     5    23   1
    25     5    24   1
    26    11    25   1
    27    12    26   1
    28    13    27   1
    29    14    28   1
    30    17    29   1
    31    18    30   1
    32    19    31   1
    33    20    32   1
    34    21    33   1
@<TRIPOS>SUBSTRUCTURE
     1  HS4      5

