@<TRIPOS>MOLECULE
3f3a_ligand_043
    27    28
SMALL
GAST_HUCK
****
This file was generated by PARSER (from files_GN.cpp)

@<TRIPOS>ATOM
      1 N         -25.2952  -10.5476  -26.8151 N.4         1 TRP       0.2336
      2 CA        -25.6019   -9.1180  -26.6817 C.3         1 TRP       0.0324
      3 C         -24.3600   -8.3052  -26.5993 C.2         1 TRP       0.0858
      4 O         -23.2593   -8.6599  -27.2993 O.co2       1 TRP      -0.5642
      5 CB        -26.5658   -8.8861  -25.4639 C.3         1 TRP       0.0190
      6 CG        -27.2629   -7.5704  -25.4229 C.2         1 TRP      -0.0392
      7 CD1       -27.5224   -6.7393  -26.5202 C.2         1 TRP       0.0167
      8 CD2       -27.9461   -6.9868  -24.3543 C.ar        1 TRP      -0.0213
      9 NE1       -28.2796   -5.7031  -26.1387 N.pl3       1 TRP      -0.2890
     10 CE2       -28.5463   -5.8172  -24.8353 C.ar        1 TRP       0.0603
     11 CE3       -28.1537   -7.3636  -23.0067 C.ar        1 TRP      -0.0747
     12 CZ2       -29.3219   -4.9799  -24.0207 C.ar        1 TRP      -0.0443
     13 CZ3       -28.9379   -6.5346  -22.1734 C.ar        1 TRP      -0.0792
     14 CH2       -29.5116   -5.3476  -22.6766 C.ar        1 TRP      -0.0768
     15 OXT       -24.3764   -7.0681  -26.0469 O.co2       1 TRP      -0.5642
     16 H1        -26.1742  -11.0739  -26.8231 H           1 TRP       0.2011
     17 H2        -24.7131  -10.8565  -26.0354 H           1 TRP       0.2011
     18 H3        -24.8216  -10.6993  -27.7087 H           1 TRP       0.2011
     19 H4        -26.0918   -8.8686  -27.6245 H           1 TRP       0.1040
     20 H5        -26.0034   -9.0354  -24.5430 H           1 TRP       0.0423
     21 H6        -27.3479   -9.6459  -25.4787 H           1 TRP       0.0423
     22 H7        -27.2461   -6.8870  -27.4902 H           1 TRP       0.0795
     23 H8        -28.6084   -5.0130  -26.7367 H           1 TRP       0.2216
     24 H9        -27.7583   -8.2265  -22.6396 H           1 TRP       0.0540
     25 H10       -29.7435   -4.1325  -24.4049 H           1 TRP       0.0541
     26 H11       -29.1022   -6.8009  -21.2019 H           1 TRP       0.0510
     27 H12       -30.0843   -4.7566  -22.0734 H           1 TRP       0.0530
@<TRIPOS>BOND
     1     2     1   1
     2     2     5   1
     3     2     3   1
     4     3     4  ar
     5     3    15  ar
     6     5     6   1
     7     6     7   2
     8     6     8   1
     9     8    11  ar
    10     8    10  ar
    11    10    12  ar
    12    10     9   1
    13     9     7   1
    14    12    14  ar
    15    14    13  ar
    16    13    11  ar
    17     1    16   1
    18     1    17   1
    19     1    18   1
    20     2    19   1
    21     5    20   1
    22     5    21   1
    23     7    22   1
    24     9    23   1
    25    11    24   1
    26    12    25   1
    27    13    26   1
    28    14    27   1
@<TRIPOS>SUBSTRUCTURE
     1  TRP      2

