@<TRIPOS>MOLECULE
3f3a_ligand_055
    27    28
SMALL
GAST_HUCK
****
This file was generated by PARSER (from files_GN.cpp)

@<TRIPOS>ATOM
      1 N         -23.9523   -5.0229  -16.5632 N.4         1 TRP       0.2336
      2 CA        -24.2967   -5.9793  -17.6350 C.3         1 TRP       0.0324
      3 C         -23.3621   -7.1320  -17.5184 C.2         1 TRP       0.0858
      4 O         -22.5589   -7.5660  -18.5210 O.co2       1 TRP      -0.5642
      5 CB        -24.3244   -5.2742  -19.0364 C.3         1 TRP       0.0190
      6 CG        -25.6090   -5.2307  -19.7831 C.2         1 TRP      -0.0392
      7 CD1       -25.9037   -4.2423  -20.7282 C.2         1 TRP       0.0167
      8 CD2       -26.6707   -6.1380  -19.8559 C.ar        1 TRP      -0.0213
      9 NE1       -27.0853   -4.5004  -21.3065 N.pl3       1 TRP      -0.2890
     10 CE2       -27.5765   -5.6304  -20.7935 C.ar        1 TRP       0.0603
     11 CE3       -26.9393   -7.3691  -19.2307 C.ar        1 TRP      -0.0747
     12 CZ2       -28.7732   -6.2987  -21.1005 C.ar        1 TRP      -0.0443
     13 CZ3       -28.1608   -8.0307  -19.4857 C.ar        1 TRP      -0.0792
     14 CH2       -29.0703   -7.4963  -20.4234 C.ar        1 TRP      -0.0768
     15 OXT       -23.2756   -7.8111  -16.3503 O.co2       1 TRP      -0.5642
     16 H1        -24.5459   -4.1962  -16.6308 H           1 TRP       0.2011
     17 H2        -22.9683   -4.7505  -16.6424 H           1 TRP       0.2011
     18 H3        -24.0994   -5.4697  -15.6564 H           1 TRP       0.2011
     19 H4        -25.2889   -6.3543  -17.3923 H           1 TRP       0.1040
     20 H5        -23.6100   -5.7264  -19.7241 H           1 TRP       0.0423
     21 H6        -23.9900   -4.2422  -18.8994 H           1 TRP       0.0423
     22 H7        -25.2934   -3.4609  -20.9772 H           1 TRP       0.0795
     23 H8        -27.4957   -3.9699  -22.0072 H           1 TRP       0.2216
     24 H9        -26.2517   -7.7921  -18.6087 H           1 TRP       0.0540
     25 H10       -29.4113   -5.9238  -21.8021 H           1 TRP       0.0541
     26 H11       -28.3773   -8.9035  -19.0013 H           1 TRP       0.0510
     27 H12       -29.9380   -7.9976  -20.6171 H           1 TRP       0.0530
@<TRIPOS>BOND
     1     2     1   1
     2     2     5   1
     3     2     3   1
     4     3     4  ar
     5     3    15  ar
     6     5     6   1
     7     6     7   2
     8     6     8   1
     9     8    11  ar
    10     8    10  ar
    11    10    12  ar
    12    10     9   1
    13     9     7   1
    14    12    14  ar
    15    14    13  ar
    16    13    11  ar
    17     1    16   1
    18     1    17   1
    19     1    18   1
    20     2    19   1
    21     5    20   1
    22     5    21   1
    23     7    22   1
    24     9    23   1
    25    11    24   1
    26    12    25   1
    27    13    26   1
    28    14    27   1
@<TRIPOS>SUBSTRUCTURE
     1  TRP      2

