@<TRIPOS>MOLECULE
3f3a_ligand_029
    27    28
SMALL
GAST_HUCK
****
This file was generated by PARSER (from files_GN.cpp)

@<TRIPOS>ATOM
      1 N         -29.5128   -0.2585  -21.2403 N.4         1 TRP       0.2336
      2 CA        -29.5272   -0.8569  -22.5837 C.3         1 TRP       0.0324
      3 C         -30.7110   -1.7239  -22.7796 C.2         1 TRP       0.0858
      4 O         -30.9642   -2.2626  -23.9929 O.co2       1 TRP      -0.5642
      5 CB        -28.1813   -1.5839  -22.8766 C.3         1 TRP       0.0190
      6 CG        -28.0436   -2.9017  -22.2097 C.2         1 TRP      -0.0392
      7 CD1       -27.7893   -3.1260  -20.8539 C.2         1 TRP       0.0167
      8 CD2       -28.1932   -4.1648  -22.7835 C.ar        1 TRP      -0.0213
      9 NE1       -27.7825   -4.4486  -20.6144 N.pl3       1 TRP      -0.2890
     10 CE2       -28.0220   -5.1024  -21.7609 C.ar        1 TRP       0.0603
     11 CE3       -28.4893   -4.5855  -24.0953 C.ar        1 TRP      -0.0747
     12 CZ2       -28.1203   -6.4816  -22.0130 C.ar        1 TRP      -0.0443
     13 CZ3       -28.5945   -5.9669  -24.3614 C.ar        1 TRP      -0.0792
     14 CH2       -28.4047   -6.9100  -23.3263 C.ar        1 TRP      -0.0768
     15 OXT       -31.4875   -2.1141  -21.7417 O.co2       1 TRP      -0.5642
     16 H1        -28.7586    0.4266  -21.1742 H           1 TRP       0.2011
     17 H2        -29.3744   -0.9872  -20.5367 H           1 TRP       0.2011
     18 H3        -30.3999    0.2173  -21.0680 H           1 TRP       0.2011
     19 H4        -29.6245   -0.0234  -23.2825 H           1 TRP       0.1040
     20 H5        -27.3451   -0.9504  -22.5688 H           1 TRP       0.0423
     21 H6        -28.0896   -1.7152  -23.9572 H           1 TRP       0.0423
     22 H7        -27.6407   -2.4048  -20.1450 H           1 TRP       0.0795
     23 H8        -27.6339   -4.8642  -19.7502 H           1 TRP       0.2216
     24 H9        -28.6332   -3.9075  -24.8456 H           1 TRP       0.0540
     25 H10       -27.9910   -7.1594  -21.2590 H           1 TRP       0.0541
     26 H11       -28.8098   -6.2858  -25.3089 H           1 TRP       0.0510
     27 H12       -28.4809   -7.9095  -23.5301 H           1 TRP       0.0530
@<TRIPOS>BOND
     1     2     1   1
     2     2     5   1
     3     2     3   1
     4     3     4  ar
     5     3    15  ar
     6     5     6   1
     7     6     7   2
     8     6     8   1
     9     8    11  ar
    10     8    10  ar
    11    10    12  ar
    12    10     9   1
    13     9     7   1
    14    12    14  ar
    15    14    13  ar
    16    13    11  ar
    17     1    16   1
    18     1    17   1
    19     1    18   1
    20     2    19   1
    21     5    20   1
    22     5    21   1
    23     7    22   1
    24     9    23   1
    25    11    24   1
    26    12    25   1
    27    13    26   1
    28    14    27   1
@<TRIPOS>SUBSTRUCTURE
     1  TRP      2

