@<TRIPOS>MOLECULE
3f3a_ligand_007
    27    28
SMALL
GAST_HUCK
****
This file was generated by PARSER (from files_GN.cpp)

@<TRIPOS>ATOM
      1 N         -24.8458   -4.6768  -18.7552 N.4         1 TRP       0.2336
      2 CA        -26.1657   -4.4479  -19.3648 C.3         1 TRP       0.0324
      3 C         -27.2154   -4.8908  -18.4215 C.2         1 TRP       0.0858
      4 O         -28.3382   -4.1542  -18.2619 O.co2       1 TRP      -0.5642
      5 CB        -26.2878   -5.1508  -20.7481 C.3         1 TRP       0.0190
      6 CG        -27.4259   -4.6281  -21.5400 C.2         1 TRP      -0.0392
      7 CD1       -28.7347   -5.1129  -21.5615 C.2         1 TRP       0.0167
      8 CD2       -27.4229   -3.5066  -22.3671 C.ar        1 TRP      -0.0213
      9 NE1       -29.4834   -4.3354  -22.3654 N.pl3       1 TRP      -0.2890
     10 CE2       -28.7164   -3.3579  -22.8722 C.ar        1 TRP       0.0603
     11 CE3       -26.4056   -2.6008  -22.7165 C.ar        1 TRP      -0.0747
     12 CZ2       -29.0352   -2.3062  -23.7515 C.ar        1 TRP      -0.0443
     13 CZ3       -26.7140   -1.5345  -23.5849 C.ar        1 TRP      -0.0792
     14 CH2       -28.0193   -1.3924  -24.1057 C.ar        1 TRP      -0.0768
     15 OXT       -27.2338   -6.1715  -17.9825 O.co2       1 TRP      -0.5642
     16 H1        -24.1184   -4.3811  -19.4101 H           1 TRP       0.2011
     17 H2        -24.7144   -5.6703  -18.5398 H           1 TRP       0.2011
     18 H3        -24.7716   -4.1202  -17.8968 H           1 TRP       0.2011
     19 H4        -26.2396   -3.3670  -19.5082 H           1 TRP       0.1040
     20 H5        -26.3902   -6.2301  -20.6165 H           1 TRP       0.0423
     21 H6        -25.3730   -5.0005  -21.3280 H           1 TRP       0.0423
     22 H7        -29.0782   -5.9161  -21.0331 H           1 TRP       0.0795
     23 H8        -30.4295   -4.4534  -22.5450 H           1 TRP       0.2216
     24 H9        -25.4603   -2.7101  -22.3450 H           1 TRP       0.0540
     25 H10       -29.9808   -2.2026  -24.1253 H           1 TRP       0.0541
     26 H11       -25.9830   -0.8675  -23.8424 H           1 TRP       0.0510
     27 H12       -28.2243   -0.6215  -24.7439 H           1 TRP       0.0530
@<TRIPOS>BOND
     1     2     1   1
     2     2     5   1
     3     2     3   1
     4     3     4  ar
     5     3    15  ar
     6     5     6   1
     7     6     7   2
     8     6     8   1
     9     8    11  ar
    10     8    10  ar
    11    10    12  ar
    12    10     9   1
    13     9     7   1
    14    12    14  ar
    15    14    13  ar
    16    13    11  ar
    17     1    16   1
    18     1    17   1
    19     1    18   1
    20     2    19   1
    21     5    20   1
    22     5    21   1
    23     7    22   1
    24     9    23   1
    25    11    24   1
    26    12    25   1
    27    13    26   1
    28    14    27   1
@<TRIPOS>SUBSTRUCTURE
     1  TRP      2

