@<TRIPOS>MOLECULE
3f3a_ligand_038
    27    28
SMALL
GAST_HUCK
****
This file was generated by PARSER (from files_GN.cpp)

@<TRIPOS>ATOM
      1 N         -23.2231   -5.1502  -16.3160 N.4         1 TRP       0.2336
      2 CA        -24.2349   -5.8095  -17.1630 C.3         1 TRP       0.0324
      3 C         -23.5310   -6.7615  -18.0432 C.2         1 TRP       0.0858
      4 O         -23.2097   -6.4370  -19.3166 O.co2       1 TRP      -0.5642
      5 CB        -25.0886   -4.7277  -17.8874 C.3         1 TRP       0.0190
      6 CG        -26.2207   -5.1691  -18.7436 C.2         1 TRP      -0.0392
      7 CD1       -26.6125   -6.4589  -19.1015 C.2         1 TRP       0.0167
      8 CD2       -27.1248   -4.3100  -19.3701 C.ar        1 TRP      -0.0213
      9 NE1       -27.6754   -6.3939  -19.9233 N.pl3       1 TRP      -0.2890
     10 CE2       -28.0120   -5.1082  -20.0978 C.ar        1 TRP       0.0603
     11 CE3       -27.2628   -2.9096  -19.3707 C.ar        1 TRP      -0.0747
     12 CZ2       -29.0530   -4.5375  -20.8500 C.ar        1 TRP      -0.0443
     13 CZ3       -28.3177   -2.3229  -20.1037 C.ar        1 TRP      -0.0792
     14 CH2       -29.2106   -3.1379  -20.8380 C.ar        1 TRP      -0.0768
     15 OXT       -23.0339   -7.9152  -17.5412 O.co2       1 TRP      -0.5642
     16 H1        -23.6666   -4.5913  -15.5862 H           1 TRP       0.2011
     17 H2        -22.6672   -4.5155  -16.8902 H           1 TRP       0.2011
     18 H3        -22.6136   -5.8563  -15.8868 H           1 TRP       0.2011
     19 H4        -24.8950   -6.3875  -16.5137 H           1 TRP       0.1040
     20 H5        -24.4255   -4.1043  -18.4977 H           1 TRP       0.0423
     21 H6        -25.5161   -4.0883  -17.1116 H           1 TRP       0.0423
     22 H7        -26.1729   -7.3248  -18.7968 H           1 TRP       0.0795
     23 H8        -28.1286   -7.1497  -20.3240 H           1 TRP       0.2216
     24 H9        -26.6164   -2.3220  -18.8453 H           1 TRP       0.0540
     25 H10       -29.6892   -5.1259  -21.3932 H           1 TRP       0.0541
     26 H11       -28.4363   -1.3077  -20.1001 H           1 TRP       0.0510
     27 H12       -29.9764   -2.7042  -21.3620 H           1 TRP       0.0530
@<TRIPOS>BOND
     1     2     1   1
     2     2     5   1
     3     2     3   1
     4     3     4  ar
     5     3    15  ar
     6     5     6   1
     7     6     7   2
     8     6     8   1
     9     8    11  ar
    10     8    10  ar
    11    10    12  ar
    12    10     9   1
    13     9     7   1
    14    12    14  ar
    15    14    13  ar
    16    13    11  ar
    17     1    16   1
    18     1    17   1
    19     1    18   1
    20     2    19   1
    21     5    20   1
    22     5    21   1
    23     7    22   1
    24     9    23   1
    25    11    24   1
    26    12    25   1
    27    13    26   1
    28    14    27   1
@<TRIPOS>SUBSTRUCTURE
     1  TRP      2

