@<TRIPOS>MOLECULE
3f3a_ligand_039
    27    28
SMALL
GAST_HUCK
****
This file was generated by PARSER (from files_GN.cpp)

@<TRIPOS>ATOM
      1 N         -29.4893    0.5990  -22.4198 N.4         1 TRP       0.2336
      2 CA        -29.7198   -0.8167  -22.0870 C.3         1 TRP       0.0324
      3 C         -28.6340   -1.2921  -21.1956 C.2         1 TRP       0.0858
      4 O         -27.7031   -0.4497  -20.6889 O.co2       1 TRP      -0.5642
      5 CB        -29.9277   -1.6212  -23.4127 C.3         1 TRP       0.0190
      6 CG        -29.3988   -3.0011  -23.4561 C.2         1 TRP      -0.0392
      7 CD1       -30.1300   -4.1907  -23.5178 C.2         1 TRP       0.0167
      8 CD2       -28.0606   -3.3739  -23.4040 C.ar        1 TRP      -0.0213
      9 NE1       -29.2831   -5.2327  -23.4698 N.pl3       1 TRP      -0.2890
     10 CE2       -28.0261   -4.7702  -23.4036 C.ar        1 TRP       0.0603
     11 CE3       -26.8744   -2.6228  -23.3153 C.ar        1 TRP      -0.0747
     12 CZ2       -26.8089   -5.4619  -23.2899 C.ar        1 TRP      -0.0443
     13 CZ3       -25.6499   -3.3064  -23.1800 C.ar        1 TRP      -0.0792
     14 CH2       -25.6158   -4.7181  -23.1682 C.ar        1 TRP      -0.0768
     15 OXT       -28.6923   -2.5409  -20.6763 O.co2       1 TRP      -0.5642
     16 H1        -30.2841    0.9666  -22.9492 H           1 TRP       0.2011
     17 H2        -28.6442    0.6810  -22.9890 H           1 TRP       0.2011
     18 H3        -29.3662    1.1425  -21.5667 H           1 TRP       0.2011
     19 H4        -30.6425   -0.8598  -21.5062 H           1 TRP       0.1040
     20 H5        -29.4683   -1.0843  -24.2464 H           1 TRP       0.0423
     21 H6        -31.0015   -1.6614  -23.6163 H           1 TRP       0.0423
     22 H7        -31.1515   -4.2670  -23.5589 H           1 TRP       0.0795
     23 H8        -29.5425   -6.1679  -23.4665 H           1 TRP       0.2216
     24 H9        -26.8975   -1.6000  -23.3251 H           1 TRP       0.0540
     25 H10       -26.7958   -6.4816  -23.2642 H           1 TRP       0.0541
     26 H11       -24.7805   -2.7752  -23.0837 H           1 TRP       0.0510
     27 H12       -24.7228   -5.1984  -23.0478 H           1 TRP       0.0530
@<TRIPOS>BOND
     1     2     1   1
     2     2     5   1
     3     2     3   1
     4     3     4  ar
     5     3    15  ar
     6     5     6   1
     7     6     7   2
     8     6     8   1
     9     8    11  ar
    10     8    10  ar
    11    10    12  ar
    12    10     9   1
    13     9     7   1
    14    12    14  ar
    15    14    13  ar
    16    13    11  ar
    17     1    16   1
    18     1    17   1
    19     1    18   1
    20     2    19   1
    21     5    20   1
    22     5    21   1
    23     7    22   1
    24     9    23   1
    25    11    24   1
    26    12    25   1
    27    13    26   1
    28    14    27   1
@<TRIPOS>SUBSTRUCTURE
     1  TRP      2

