@<TRIPOS>MOLECULE
3f3a_ligand_023
    27    28
SMALL
GAST_HUCK
****
This file was generated by PARSER (from files_GN.cpp)

@<TRIPOS>ATOM
      1 N         -27.2671   -6.8534  -26.9085 N.4         1 TRP       0.2336
      2 CA        -26.9949   -7.0739  -25.4796 C.3         1 TRP       0.0324
      3 C         -26.1169   -8.2624  -25.3692 C.2         1 TRP       0.0858
      4 O         -26.5512   -9.4557  -24.8947 O.co2       1 TRP      -0.5642
      5 CB        -28.3225   -7.1335  -24.6577 C.3         1 TRP       0.0190
      6 CG        -28.1601   -6.7115  -23.2421 C.2         1 TRP      -0.0392
      7 CD1       -27.7866   -5.4306  -22.8178 C.2         1 TRP       0.0167
      8 CD2       -28.4043   -7.4375  -22.0736 C.ar        1 TRP      -0.0213
      9 NE1       -27.8091   -5.3751  -21.4756 N.pl3       1 TRP      -0.2890
     10 CE2       -28.1856   -6.5684  -20.9966 C.ar        1 TRP       0.0603
     11 CE3       -28.8004   -8.7666  -21.8416 C.ar        1 TRP      -0.0747
     12 CZ2       -28.3768   -6.9829  -19.6689 C.ar        1 TRP      -0.0443
     13 CZ3       -28.9921   -9.1992  -20.5111 C.ar        1 TRP      -0.0792
     14 CH2       -28.7883   -8.3105  -19.4323 C.ar        1 TRP      -0.0768
     15 OXT       -24.8747   -8.2139  -25.9050 O.co2       1 TRP      -0.5642
     16 H1        -27.9109   -6.0654  -27.0205 H           1 TRP       0.2011
     17 H2        -27.6794   -7.6932  -27.3216 H           1 TRP       0.2011
     18 H3        -26.3912   -6.6358  -27.3874 H           1 TRP       0.2011
     19 H4        -26.4193   -6.2128  -25.1432 H           1 TRP       0.1040
     20 H5        -28.7535   -8.1364  -24.7120 H           1 TRP       0.0423
     21 H6        -29.0586   -6.4524  -25.1012 H           1 TRP       0.0423
     22 H7        -27.5519   -4.6425  -23.4239 H           1 TRP       0.0795
     23 H8        -27.5967   -4.5965  -20.9370 H           1 TRP       0.2216
     24 H9        -28.9407   -9.4162  -22.6169 H           1 TRP       0.0540
     25 H10       -28.2227   -6.3352  -18.8928 H           1 TRP       0.0541
     26 H11       -29.2821  -10.1607  -20.3264 H           1 TRP       0.0510
     27 H12       -28.9374   -8.6287  -18.4722 H           1 TRP       0.0530
@<TRIPOS>BOND
     1     2     1   1
     2     2     5   1
     3     2     3   1
     4     3     4  ar
     5     3    15  ar
     6     5     6   1
     7     6     7   2
     8     6     8   1
     9     8    11  ar
    10     8    10  ar
    11    10    12  ar
    12    10     9   1
    13     9     7   1
    14    12    14  ar
    15    14    13  ar
    16    13    11  ar
    17     1    16   1
    18     1    17   1
    19     1    18   1
    20     2    19   1
    21     5    20   1
    22     5    21   1
    23     7    22   1
    24     9    23   1
    25    11    24   1
    26    12    25   1
    27    13    26   1
    28    14    27   1
@<TRIPOS>SUBSTRUCTURE
     1  TRP      2

