@<TRIPOS>MOLECULE
3f3a_ligand_002
    27    28
SMALL
GAST_HUCK
****
This file was generated by PARSER (from files_GN.cpp)

@<TRIPOS>ATOM
      1 N         -27.3200   -3.3137  -18.3874 N.4         1 TRP       0.2336
      2 CA        -28.4218   -4.2585  -18.6717 C.3         1 TRP       0.0324
      3 C         -28.0042   -5.6581  -18.4101 C.2         1 TRP       0.0858
      4 O         -26.7691   -5.9802  -17.9636 O.co2       1 TRP      -0.5642
      5 CB        -29.0540   -4.0750  -20.0938 C.3         1 TRP       0.0190
      6 CG        -28.1897   -3.4129  -21.1002 C.2         1 TRP      -0.0392
      7 CD1       -26.9812   -3.9062  -21.5980 C.2         1 TRP       0.0167
      8 CD2       -28.3686   -2.1632  -21.6976 C.ar        1 TRP      -0.0213
      9 NE1       -26.4431   -3.0031  -22.4353 N.pl3       1 TRP      -0.2890
     10 CE2       -27.2569   -1.9398  -22.5134 C.ar        1 TRP       0.0603
     11 CE3       -29.3788   -1.1852  -21.5884 C.ar        1 TRP      -0.0747
     12 CZ2       -27.1078   -0.7408  -23.2309 C.ar        1 TRP      -0.0443
     13 CZ3       -29.2466    0.0189  -22.3113 C.ar        1 TRP      -0.0792
     14 CH2       -28.1120    0.2423  -23.1222 C.ar        1 TRP      -0.0768
     15 OXT       -28.9231   -6.6503  -18.4246 O.co2       1 TRP      -0.5642
     16 H1        -27.6342   -2.3451  -18.4985 H           1 TRP       0.2011
     17 H2        -26.5411   -3.4899  -19.0248 H           1 TRP       0.2011
     18 H3        -26.9949   -3.4481  -17.4261 H           1 TRP       0.2011
     19 H4        -29.1959   -4.0360  -17.9314 H           1 TRP       0.1040
     20 H5        -29.9700   -3.4927  -19.9817 H           1 TRP       0.0423
     21 H6        -29.3682   -5.0340  -20.5118 H           1 TRP       0.0423
     22 H7        -26.5542   -4.8012  -21.3499 H           1 TRP       0.0795
     23 H8        -25.5927   -3.0942  -22.8920 H           1 TRP       0.2216
     24 H9        -30.1969   -1.3357  -20.9970 H           1 TRP       0.0540
     25 H10       -26.2772   -0.5800  -23.8036 H           1 TRP       0.0541
     26 H11       -29.9657    0.7409  -22.2308 H           1 TRP       0.0510
     27 H12       -28.0172    1.1240  -23.6304 H           1 TRP       0.0530
@<TRIPOS>BOND
     1     2     1   1
     2     2     5   1
     3     2     3   1
     4     3     4  ar
     5     3    15  ar
     6     5     6   1
     7     6     7   2
     8     6     8   1
     9     8    11  ar
    10     8    10  ar
    11    10    12  ar
    12    10     9   1
    13     9     7   1
    14    12    14  ar
    15    14    13  ar
    16    13    11  ar
    17     1    16   1
    18     1    17   1
    19     1    18   1
    20     2    19   1
    21     5    20   1
    22     5    21   1
    23     7    22   1
    24     9    23   1
    25    11    24   1
    26    12    25   1
    27    13    26   1
    28    14    27   1
@<TRIPOS>SUBSTRUCTURE
     1  TRP      2

