@<TRIPOS>MOLECULE
3f3a_ligand_015
    27    28
SMALL
GAST_HUCK
****
This file was generated by PARSER (from files_GN.cpp)

@<TRIPOS>ATOM
      1 N         -26.0071  -10.8118  -25.4853 N.4         1 TRP       0.2336
      2 CA        -26.0533  -11.7020  -24.3130 C.3         1 TRP       0.0324
      3 C         -25.5803  -13.0382  -24.7331 C.2         1 TRP       0.0858
      4 O         -26.2800  -13.7595  -25.6392 O.co2       1 TRP      -0.5642
      5 CB        -27.4775  -11.7695  -23.6874 C.3         1 TRP       0.0190
      6 CG        -27.9592  -10.4766  -23.1421 C.2         1 TRP      -0.0392
      7 CD1       -28.4170   -9.3905  -23.8953 C.2         1 TRP       0.0167
      8 CD2       -28.1005  -10.0951  -21.8053 C.ar        1 TRP      -0.0213
      9 NE1       -28.8013   -8.4009  -23.0707 N.pl3       1 TRP      -0.2890
     10 CE2       -28.6253   -8.7985  -21.8019 C.ar        1 TRP       0.0603
     11 CE3       -27.8147  -10.7454  -20.5881 C.ar        1 TRP      -0.0747
     12 CZ2       -28.8907   -8.1176  -20.6016 C.ar        1 TRP      -0.0443
     13 CZ3       -28.0758  -10.0741  -19.3753 C.ar        1 TRP      -0.0792
     14 CH2       -28.6145   -8.7689  -19.3817 C.ar        1 TRP      -0.0768
     15 OXT       -24.3002  -13.4064  -24.4949 O.co2       1 TRP      -0.5642
     16 H1        -26.2060   -9.8548  -25.1930 H           1 TRP       0.2011
     17 H2        -26.6967  -11.1030  -26.1838 H           1 TRP       0.2011
     18 H3        -25.0733  -10.8382  -25.9003 H           1 TRP       0.2011
     19 H4        -25.3613  -11.3015  -23.5635 H           1 TRP       0.1040
     20 H5        -27.4696  -12.5121  -22.8845 H           1 TRP       0.0423
     21 H6        -28.1964  -12.1132  -24.4359 H           1 TRP       0.0423
     22 H7        -28.4672   -9.3482  -24.9144 H           1 TRP       0.0795
     23 H8        -29.1623   -7.5429  -23.3478 H           1 TRP       0.2216
     24 H9        -27.4195  -11.6862  -20.5759 H           1 TRP       0.0540
     25 H10       -29.2740   -7.1692  -20.6156 H           1 TRP       0.0541
     26 H11       -27.8823  -10.5361  -18.4853 H           1 TRP       0.0510
     27 H12       -28.8060   -8.2880  -18.5010 H           1 TRP       0.0530
@<TRIPOS>BOND
     1     2     1   1
     2     2     5   1
     3     2     3   1
     4     3     4  ar
     5     3    15  ar
     6     5     6   1
     7     6     7   2
     8     6     8   1
     9     8    11  ar
    10     8    10  ar
    11    10    12  ar
    12    10     9   1
    13     9     7   1
    14    12    14  ar
    15    14    13  ar
    16    13    11  ar
    17     1    16   1
    18     1    17   1
    19     1    18   1
    20     2    19   1
    21     5    20   1
    22     5    21   1
    23     7    22   1
    24     9    23   1
    25    11    24   1
    26    12    25   1
    27    13    26   1
    28    14    27   1
@<TRIPOS>SUBSTRUCTURE
     1  TRP      2

