@<TRIPOS>MOLECULE
3f3a_ligand_028
    27    28
SMALL
GAST_HUCK
****
This file was generated by PARSER (from files_GN.cpp)

@<TRIPOS>ATOM
      1 N         -25.4315  -10.3670  -26.5131 N.4         1 TRP       0.2336
      2 CA        -24.8348  -11.0534  -25.3540 C.3         1 TRP       0.0324
      3 C         -24.4521  -12.4496  -25.6876 C.2         1 TRP       0.0858
      4 O         -24.4511  -12.9042  -26.9526 O.co2       1 TRP      -0.5642
      5 CB        -25.7572  -10.9145  -24.0930 C.3         1 TRP       0.0190
      6 CG        -26.6681  -12.0568  -23.7747 C.2         1 TRP      -0.0392
      7 CD1       -27.4185  -12.8214  -24.6809 C.2         1 TRP       0.0167
      8 CD2       -26.8917  -12.6287  -22.5270 C.ar        1 TRP      -0.0213
      9 NE1       -28.0312  -13.8113  -24.0268 N.pl3       1 TRP      -0.2890
     10 CE2       -27.7367  -13.7250  -22.7202 C.ar        1 TRP       0.0603
     11 CE3       -26.4501  -12.2953  -21.2373 C.ar        1 TRP      -0.0747
     12 CZ2       -28.1417  -14.5408  -21.6411 C.ar        1 TRP      -0.0443
     13 CZ3       -26.8530  -13.0943  -20.1447 C.ar        1 TRP      -0.0792
     14 CH2       -27.6918  -14.2128  -20.3479 C.ar        1 TRP      -0.0768
     15 OXT       -24.0745  -13.2949  -24.7043 O.co2       1 TRP      -0.5642
     16 H1        -25.5616   -9.3740  -26.3001 H           1 TRP       0.2011
     17 H2        -26.3390  -10.7793  -26.7404 H           1 TRP       0.2011
     18 H3        -24.8199  -10.4446  -27.3389 H           1 TRP       0.2011
     19 H4        -23.9034  -10.5239  -25.1396 H           1 TRP       0.1040
     20 H5        -26.3707  -10.0193  -24.1783 H           1 TRP       0.0423
     21 H6        -25.1035  -10.7634  -23.2340 H           1 TRP       0.0423
     22 H7        -27.4645  -12.6811  -25.6939 H           1 TRP       0.0795
     23 H8        -28.5986  -14.4942  -24.4288 H           1 TRP       0.2216
     24 H9        -25.8513  -11.4787  -21.0765 H           1 TRP       0.0540
     25 H10       -28.7475  -15.3430  -21.8024 H           1 TRP       0.0541
     26 H11       -26.5386  -12.8600  -19.1987 H           1 TRP       0.0510
     27 H12       -27.9793  -14.7850  -19.5577 H           1 TRP       0.0530
@<TRIPOS>BOND
     1     2     1   1
     2     2     5   1
     3     2     3   1
     4     3     4  ar
     5     3    15  ar
     6     5     6   1
     7     6     7   2
     8     6     8   1
     9     8    11  ar
    10     8    10  ar
    11    10    12  ar
    12    10     9   1
    13     9     7   1
    14    12    14  ar
    15    14    13  ar
    16    13    11  ar
    17     1    16   1
    18     1    17   1
    19     1    18   1
    20     2    19   1
    21     5    20   1
    22     5    21   1
    23     7    22   1
    24     9    23   1
    25    11    24   1
    26    12    25   1
    27    13    26   1
    28    14    27   1
@<TRIPOS>SUBSTRUCTURE
     1  TRP      2

