@<TRIPOS>MOLECULE
3f3a_ligand_013
    27    28
SMALL
GAST_HUCK
****
This file was generated by PARSER (from files_GN.cpp)

@<TRIPOS>ATOM
      1 N         -24.9918  -11.4147  -27.0680 N.4         1 TRP       0.2336
      2 CA        -24.5670  -10.5022  -25.9900 C.3         1 TRP       0.0324
      3 C         -24.4694  -11.1901  -24.6807 C.2         1 TRP       0.0858
      4 O         -24.5588  -12.5385  -24.5974 O.co2       1 TRP      -0.5642
      5 CB        -25.4600   -9.2288  -25.9704 C.3         1 TRP       0.0190
      6 CG        -26.8039   -9.2818  -25.3360 C.2         1 TRP      -0.0392
      7 CD1       -27.4670  -10.3573  -24.7356 C.2         1 TRP       0.0167
      8 CD2       -27.6788   -8.1949  -25.2123 C.ar        1 TRP      -0.0213
      9 NE1       -28.6487   -9.9431  -24.2451 N.pl3       1 TRP      -0.2890
     10 CE2       -28.8115   -8.6434  -24.5281 C.ar        1 TRP       0.0603
     11 CE3       -27.5951   -6.8546  -25.6459 C.ar        1 TRP      -0.0747
     12 CZ2       -29.8882   -7.7836  -24.2512 C.ar        1 TRP      -0.0443
     13 CZ3       -28.6750   -5.9832  -25.3838 C.ar        1 TRP      -0.0792
     14 CH2       -29.8136   -6.4445  -24.6921 C.ar        1 TRP      -0.0768
     15 OXT       -24.3856  -10.4903  -23.5253 O.co2       1 TRP      -0.5642
     16 H1        -24.8106  -10.9694  -27.9720 H           1 TRP       0.2011
     17 H2        -25.9915  -11.6155  -26.9953 H           1 TRP       0.2011
     18 H3        -24.4633  -12.2879  -27.0081 H           1 TRP       0.2011
     19 H4        -23.5482  -10.1918  -26.2520 H           1 TRP       0.1040
     20 H5        -25.6007   -8.8999  -27.0032 H           1 TRP       0.0423
     21 H6        -24.9024   -8.4479  -25.4472 H           1 TRP       0.0423
     22 H7        -27.1205  -11.3156  -24.6677 H           1 TRP       0.0795
     23 H8        -29.2910  -10.4973  -23.7705 H           1 TRP       0.2216
     24 H9        -26.7751   -6.5229  -26.1504 H           1 TRP       0.0540
     25 H10       -30.7108   -8.1239  -23.7503 H           1 TRP       0.0541
     26 H11       -28.6354   -5.0104  -25.6951 H           1 TRP       0.0510
     27 H12       -30.5947   -5.8067  -24.5080 H           1 TRP       0.0530
@<TRIPOS>BOND
     1     2     1   1
     2     2     5   1
     3     2     3   1
     4     3     4  ar
     5     3    15  ar
     6     5     6   1
     7     6     7   2
     8     6     8   1
     9     8    11  ar
    10     8    10  ar
    11    10    12  ar
    12    10     9   1
    13     9     7   1
    14    12    14  ar
    15    14    13  ar
    16    13    11  ar
    17     1    16   1
    18     1    17   1
    19     1    18   1
    20     2    19   1
    21     5    20   1
    22     5    21   1
    23     7    22   1
    24     9    23   1
    25    11    24   1
    26    12    25   1
    27    13    26   1
    28    14    27   1
@<TRIPOS>SUBSTRUCTURE
     1  TRP      2

