@<TRIPOS>MOLECULE
3f3a_ligand_037
    27    28
SMALL
GAST_HUCK
****
This file was generated by PARSER (from files_GN.cpp)

@<TRIPOS>ATOM
      1 N         -25.0587  -11.6483  -26.8818 N.4         1 TRP       0.2336
      2 CA        -24.5599  -11.7526  -25.5012 C.3         1 TRP       0.0324
      3 C         -24.9969  -13.0370  -24.9188 C.2         1 TRP       0.0858
      4 O         -26.2365  -13.5207  -25.1614 O.co2       1 TRP      -0.5642
      5 CB        -24.9435  -10.5034  -24.6547 C.3         1 TRP       0.0190
      6 CG        -26.3736  -10.3842  -24.2938 C.2         1 TRP      -0.0392
      7 CD1       -27.2804   -9.4636  -24.8235 C.2         1 TRP       0.0167
      8 CD2       -27.0933  -11.1270  -23.3570 C.ar        1 TRP      -0.0213
      9 NE1       -28.4877   -9.6553  -24.2692 N.pl3       1 TRP      -0.2890
     10 CE2       -28.4076  -10.6562  -23.3827 C.ar        1 TRP       0.0603
     11 CE3       -26.7224  -12.1651  -22.4859 C.ar        1 TRP      -0.0747
     12 CZ2       -29.4038  -11.2223  -22.5708 C.ar        1 TRP      -0.0443
     13 CZ3       -27.7183  -12.7539  -21.6639 C.ar        1 TRP      -0.0792
     14 CH2       -29.0444  -12.2885  -21.7165 C.ar        1 TRP      -0.0768
     15 OXT       -24.0970  -13.8830  -24.3627 O.co2       1 TRP      -0.5642
     16 H1        -24.7119  -10.7912  -27.3144 H           1 TRP       0.2011
     17 H2        -26.0804  -11.6398  -26.8891 H           1 TRP       0.2011
     18 H3        -24.7283  -12.4505  -27.4252 H           1 TRP       0.2011
     19 H4        -23.4668  -11.7673  -25.5693 H           1 TRP       0.1040
     20 H5        -24.6538   -9.6119  -25.2187 H           1 TRP       0.0423
     21 H6        -24.3477  -10.4925  -23.7363 H           1 TRP       0.0423
     22 H7        -27.0687   -8.7584  -25.5326 H           1 TRP       0.0795
     23 H8        -29.2942   -9.1509  -24.4752 H           1 TRP       0.2216
     24 H9        -25.7595  -12.4985  -22.4434 H           1 TRP       0.0540
     25 H10       -30.3638  -10.8782  -22.6061 H           1 TRP       0.0541
     26 H11       -27.4638  -13.5145  -21.0332 H           1 TRP       0.0510
     27 H12       -29.7613  -12.7234  -21.1248 H           1 TRP       0.0530
@<TRIPOS>BOND
     1     2     1   1
     2     2     5   1
     3     2     3   1
     4     3     4  ar
     5     3    15  ar
     6     5     6   1
     7     6     7   2
     8     6     8   1
     9     8    11  ar
    10     8    10  ar
    11    10    12  ar
    12    10     9   1
    13     9     7   1
    14    12    14  ar
    15    14    13  ar
    16    13    11  ar
    17     1    16   1
    18     1    17   1
    19     1    18   1
    20     2    19   1
    21     5    20   1
    22     5    21   1
    23     7    22   1
    24     9    23   1
    25    11    24   1
    26    12    25   1
    27    13    26   1
    28    14    27   1
@<TRIPOS>SUBSTRUCTURE
     1  TRP      2

