@<TRIPOS>MOLECULE
3f3a_ligand_045
    27    28
SMALL
GAST_HUCK
****
This file was generated by PARSER (from files_GN.cpp)

@<TRIPOS>ATOM
      1 N         -27.4028   -3.3142  -18.2003 N.4         1 TRP       0.2336
      2 CA        -28.5085   -4.2770  -18.4157 C.3         1 TRP       0.0324
      3 C         -28.0467   -5.6734  -18.2206 C.2         1 TRP       0.0858
      4 O         -26.7819   -5.9795  -17.8570 O.co2       1 TRP      -0.5642
      5 CB        -29.2196   -4.0855  -19.7893 C.3         1 TRP       0.0190
      6 CG        -28.3012   -3.8352  -20.9126 C.2         1 TRP      -0.0392
      7 CD1       -27.6422   -2.6288  -21.1581 C.2         1 TRP       0.0167
      8 CD2       -27.8921   -4.7178  -21.9083 C.ar        1 TRP      -0.0213
      9 NE1       -26.8372   -2.7759  -22.2208 N.pl3       1 TRP      -0.2890
     10 CE2       -26.9742   -4.0209  -22.6951 C.ar        1 TRP       0.0603
     11 CE3       -28.2083   -6.0607  -22.1944 C.ar        1 TRP      -0.0747
     12 CZ2       -26.3416   -4.6320  -23.7832 C.ar        1 TRP      -0.0443
     13 CZ3       -27.6062   -6.6747  -23.3119 C.ar        1 TRP      -0.0792
     14 CH2       -26.6745   -5.9638  -24.1023 C.ar        1 TRP      -0.0768
     15 OXT       -28.9375   -6.6915  -18.2287 O.co2       1 TRP      -0.5642
     16 H1        -27.7306   -2.3486  -18.2992 H           1 TRP       0.2011
     17 H2        -26.6677   -3.4830  -18.8913 H           1 TRP       0.2011
     18 H3        -27.0046   -3.4313  -17.2687 H           1 TRP       0.2011
     19 H4        -29.2537   -4.0826  -17.6393 H           1 TRP       0.1040
     20 H5        -29.9197   -3.2530  -19.7351 H           1 TRP       0.0423
     21 H6        -29.8147   -4.9674  -20.0241 H           1 TRP       0.0423
     22 H7        -27.7350   -1.7758  -20.6032 H           1 TRP       0.0795
     23 H8        -26.2428   -2.0975  -22.5760 H           1 TRP       0.2216
     24 H9        -28.8639   -6.5848  -21.6106 H           1 TRP       0.0540
     25 H10       -25.6571   -4.1106  -24.3247 H           1 TRP       0.0541
     26 H11       -27.8329   -7.6444  -23.5445 H           1 TRP       0.0510
     27 H12       -26.2375   -6.4179  -24.9073 H           1 TRP       0.0530
@<TRIPOS>BOND
     1     2     1   1
     2     2     5   1
     3     2     3   1
     4     3     4  ar
     5     3    15  ar
     6     5     6   1
     7     6     7   2
     8     6     8   1
     9     8    11  ar
    10     8    10  ar
    11    10    12  ar
    12    10     9   1
    13     9     7   1
    14    12    14  ar
    15    14    13  ar
    16    13    11  ar
    17     1    16   1
    18     1    17   1
    19     1    18   1
    20     2    19   1
    21     5    20   1
    22     5    21   1
    23     7    22   1
    24     9    23   1
    25    11    24   1
    26    12    25   1
    27    13    26   1
    28    14    27   1
@<TRIPOS>SUBSTRUCTURE
     1  TRP      2

