@<TRIPOS>MOLECULE
3f3a_ligand_042
    27    28
SMALL
GAST_HUCK
****
This file was generated by PARSER (from files_GN.cpp)

@<TRIPOS>ATOM
      1 N         -25.3083  -10.4681  -27.0366 N.4         1 TRP       0.2336
      2 CA        -25.2304   -9.0219  -26.7649 C.3         1 TRP       0.0324
      3 C         -23.8616   -8.5168  -27.0349 C.2         1 TRP       0.0858
      4 O         -22.8738   -9.3184  -27.5062 O.co2       1 TRP      -0.5642
      5 CB        -25.6733   -8.7222  -25.3036 C.3         1 TRP       0.0190
      6 CG        -27.1391   -8.7052  -25.0992 C.2         1 TRP      -0.0392
      7 CD1       -27.9264   -7.5530  -25.0452 C.2         1 TRP       0.0167
      8 CD2       -28.0142   -9.7739  -24.8994 C.ar        1 TRP      -0.0213
      9 NE1       -29.2096   -7.8974  -24.8528 N.pl3       1 TRP      -0.2890
     10 CE2       -29.2950   -9.2313  -24.7618 C.ar        1 TRP       0.0603
     11 CE3       -27.8226  -11.1670  -24.8240 C.ar        1 TRP      -0.0747
     12 CZ2       -30.4193  -10.0485  -24.5577 C.ar        1 TRP      -0.0443
     13 CZ3       -28.9441  -11.9997  -24.6328 C.ar        1 TRP      -0.0792
     14 CH2       -30.2369  -11.4445  -24.4986 C.ar        1 TRP      -0.0768
     15 OXT       -23.6251   -7.1836  -26.9777 O.co2       1 TRP      -0.5642
     16 H1        -26.2750  -10.7855  -26.9837 H           1 TRP       0.2011
     17 H2        -24.7375  -10.9852  -26.3617 H           1 TRP       0.2011
     18 H3        -24.9651  -10.6483  -27.9763 H           1 TRP       0.2011
     19 H4        -25.9012   -8.5126  -27.4613 H           1 TRP       0.1040
     20 H5        -25.2997   -7.7432  -25.0027 H           1 TRP       0.0423
     21 H6        -25.2217   -9.4533  -24.6231 H           1 TRP       0.0423
     22 H7        -27.5905   -6.5945  -25.1599 H           1 TRP       0.0795
     23 H8        -29.9553   -7.2778  -24.7886 H           1 TRP       0.2216
     24 H9        -26.8863  -11.5730  -24.9132 H           1 TRP       0.0540
     25 H10       -31.3491   -9.6398  -24.4665 H           1 TRP       0.0541
     26 H11       -28.8180  -13.0160  -24.5809 H           1 TRP       0.0510
     27 H12       -31.0387  -12.0573  -24.3547 H           1 TRP       0.0530
@<TRIPOS>BOND
     1     2     1   1
     2     2     5   1
     3     2     3   1
     4     3     4  ar
     5     3    15  ar
     6     5     6   1
     7     6     7   2
     8     6     8   1
     9     8    11  ar
    10     8    10  ar
    11    10    12  ar
    12    10     9   1
    13     9     7   1
    14    12    14  ar
    15    14    13  ar
    16    13    11  ar
    17     1    16   1
    18     1    17   1
    19     1    18   1
    20     2    19   1
    21     5    20   1
    22     5    21   1
    23     7    22   1
    24     9    23   1
    25    11    24   1
    26    12    25   1
    27    13    26   1
    28    14    27   1
@<TRIPOS>SUBSTRUCTURE
     1  TRP      2

