@<TRIPOS>MOLECULE
3f3a_ligand_022
    27    28
SMALL
GAST_HUCK
****
This file was generated by PARSER (from files_GN.cpp)

@<TRIPOS>ATOM
      1 N         -25.9391   -3.9826  -20.6871 N.4         1 TRP       0.2336
      2 CA        -26.9521   -4.6695  -21.5052 C.3         1 TRP       0.0324
      3 C         -26.6104   -4.6957  -22.9472 C.2         1 TRP       0.0858
      4 O         -25.4508   -5.2501  -23.3523 O.co2       1 TRP      -0.5642
      5 CB        -28.3755   -4.1421  -21.1570 C.3         1 TRP       0.0190
      6 CG        -28.8716   -2.8169  -21.6258 C.2         1 TRP      -0.0392
      7 CD1       -30.1961   -2.4398  -21.3736 C.2         1 TRP       0.0167
      8 CD2       -28.3070   -1.7303  -22.3129 C.ar        1 TRP      -0.0213
      9 NE1       -30.4315   -1.2134  -21.8549 N.pl3       1 TRP      -0.2890
     10 CE2       -29.3097   -0.7564  -22.4208 C.ar        1 TRP       0.0603
     11 CE3       -27.0315   -1.4561  -22.8542 C.ar        1 TRP      -0.0747
     12 CZ2       -29.0922    0.4882  -23.0358 C.ar        1 TRP      -0.0443
     13 CZ3       -26.8016   -0.2162  -23.5005 C.ar        1 TRP      -0.0792
     14 CH2       -27.8216    0.7527  -23.5809 C.ar        1 TRP      -0.0768
     15 OXT       -27.4708   -4.2818  -23.9040 O.co2       1 TRP      -0.5642
     16 H1        -26.1103   -4.2076  -19.7019 H           1 TRP       0.2011
     17 H2        -25.9832   -2.9691  -20.7979 H           1 TRP       0.2011
     18 H3        -24.9958   -4.3024  -20.9316 H           1 TRP       0.2011
     19 H4        -26.9206   -5.7091  -21.1736 H           1 TRP       0.1040
     20 H5        -28.4588   -4.1413  -20.0630 H           1 TRP       0.0423
     21 H6        -29.0881   -4.8900  -21.5130 H           1 TRP       0.0423
     22 H7        -30.8931   -3.0040  -20.8781 H           1 TRP       0.0795
     23 H8        -31.2730   -0.7423  -21.8019 H           1 TRP       0.2216
     24 H9        -26.2732   -2.1374  -22.7876 H           1 TRP       0.0540
     25 H10       -29.8405    1.1866  -23.0818 H           1 TRP       0.0541
     26 H11       -25.8870   -0.0115  -23.9066 H           1 TRP       0.0510
     27 H12       -27.6395    1.6531  -24.0283 H           1 TRP       0.0530
@<TRIPOS>BOND
     1     2     1   1
     2     2     5   1
     3     2     3   1
     4     3     4  ar
     5     3    15  ar
     6     5     6   1
     7     6     7   2
     8     6     8   1
     9     8    11  ar
    10     8    10  ar
    11    10    12  ar
    12    10     9   1
    13     9     7   1
    14    12    14  ar
    15    14    13  ar
    16    13    11  ar
    17     1    16   1
    18     1    17   1
    19     1    18   1
    20     2    19   1
    21     5    20   1
    22     5    21   1
    23     7    22   1
    24     9    23   1
    25    11    24   1
    26    12    25   1
    27    13    26   1
    28    14    27   1
@<TRIPOS>SUBSTRUCTURE
     1  TRP      2

