@<TRIPOS>MOLECULE
3f3a_ligand_053
    27    28
SMALL
GAST_HUCK
****
This file was generated by PARSER (from files_GN.cpp)

@<TRIPOS>ATOM
      1 N         -28.9226   -1.6427  -24.3695 N.4         1 TRP       0.2336
      2 CA        -28.7031   -0.7509  -23.2276 C.3         1 TRP       0.0324
      3 C         -28.7290    0.6598  -23.6831 C.2         1 TRP       0.0858
      4 O         -27.7552    1.1607  -24.4932 O.co2       1 TRP      -0.5642
      5 CB        -27.3740   -1.1036  -22.4933 C.3         1 TRP       0.0190
      6 CG        -27.5513   -2.0308  -21.3484 C.2         1 TRP      -0.0392
      7 CD1       -28.3173   -1.7428  -20.2168 C.2         1 TRP       0.0167
      8 CD2       -26.9255   -3.2496  -21.0794 C.ar        1 TRP      -0.0213
      9 NE1       -28.1960   -2.7399  -19.3198 N.pl3       1 TRP      -0.2890
     10 CE2       -27.3596   -3.6565  -19.8045 C.ar        1 TRP       0.0603
     11 CE3       -25.9833   -4.0251  -21.7783 C.ar        1 TRP      -0.0747
     12 CZ2       -26.8922   -4.8379  -19.2123 C.ar        1 TRP      -0.0443
     13 CZ3       -25.5037   -5.2151  -21.1913 C.ar        1 TRP      -0.0792
     14 CH2       -25.9581   -5.6195  -19.9166 C.ar        1 TRP      -0.0768
     15 OXT       -29.6369    1.5269  -23.1700 O.co2       1 TRP      -0.5642
     16 H1        -28.8337   -2.6115  -24.0630 H           1 TRP       0.2011
     17 H2        -28.2283   -1.4486  -25.0958 H           1 TRP       0.2011
     18 H3        -29.8583   -1.4979  -24.7474 H           1 TRP       0.2011
     19 H4        -29.5589   -0.8954  -22.5663 H           1 TRP       0.1040
     20 H5        -26.9369   -0.1887  -22.0838 H           1 TRP       0.0423
     21 H6        -26.6526   -1.5069  -23.2044 H           1 TRP       0.0423
     22 H7        -28.8591   -0.8899  -20.0700 H           1 TRP       0.0795
     23 H8        -28.6145   -2.7695  -18.4476 H           1 TRP       0.2216
     24 H9        -25.6395   -3.7223  -22.6958 H           1 TRP       0.0540
     25 H10       -27.2108   -5.1135  -18.2767 H           1 TRP       0.0541
     26 H11       -24.8112   -5.7715  -21.6842 H           1 TRP       0.0510
     27 H12       -25.6011   -6.4767  -19.4954 H           1 TRP       0.0530
@<TRIPOS>BOND
     1     2     1   1
     2     2     5   1
     3     2     3   1
     4     3     4  ar
     5     3    15  ar
     6     5     6   1
     7     6     7   2
     8     6     8   1
     9     8    11  ar
    10     8    10  ar
    11    10    12  ar
    12    10     9   1
    13     9     7   1
    14    12    14  ar
    15    14    13  ar
    16    13    11  ar
    17     1    16   1
    18     1    17   1
    19     1    18   1
    20     2    19   1
    21     5    20   1
    22     5    21   1
    23     7    22   1
    24     9    23   1
    25    11    24   1
    26    12    25   1
    27    13    26   1
    28    14    27   1
@<TRIPOS>SUBSTRUCTURE
     1  TRP      2

