@<TRIPOS>MOLECULE
3f3a_ligand_008
    27    28
SMALL
GAST_HUCK
****
This file was generated by PARSER (from files_GN.cpp)

@<TRIPOS>ATOM
      1 N         -25.1707   -3.4552  -19.1844 N.4         1 TRP       0.2336
      2 CA        -26.1442   -4.4425  -18.6757 C.3         1 TRP       0.0324
      3 C         -26.0256   -5.7451  -19.3579 C.2         1 TRP       0.0858
      4 O         -26.4558   -6.8698  -18.7456 O.co2       1 TRP      -0.5642
      5 CB        -27.6051   -3.8943  -18.6706 C.3         1 TRP       0.0190
      6 CG        -28.1802   -3.5550  -19.9917 C.2         1 TRP      -0.0392
      7 CD1       -28.4284   -2.2570  -20.4601 C.2         1 TRP       0.0167
      8 CD2       -28.6101   -4.3975  -21.0202 C.ar        1 TRP      -0.0213
      9 NE1       -28.9221   -2.3076  -21.7057 N.pl3       1 TRP      -0.2890
     10 CE2       -29.0278   -3.5836  -22.0757 C.ar        1 TRP       0.0603
     11 CE3       -28.6718   -5.7976  -21.1318 C.ar        1 TRP      -0.0747
     12 CZ2       -29.4602   -4.1338  -23.2971 C.ar        1 TRP      -0.0443
     13 CZ3       -29.0735   -6.3640  -22.3636 C.ar        1 TRP      -0.0792
     14 CH2       -29.4523   -5.5386  -23.4418 C.ar        1 TRP      -0.0768
     15 OXT       -25.5990   -5.8242  -20.6391 O.co2       1 TRP      -0.5642
     16 H1        -24.9633   -2.7885  -18.4410 H           1 TRP       0.2011
     17 H2        -25.5468   -2.9446  -19.9824 H           1 TRP       0.2011
     18 H3        -24.3034   -3.9182  -19.4628 H           1 TRP       0.2011
     19 H4        -25.8587   -4.6105  -17.6287 H           1 TRP       0.1040
     20 H5        -27.6109   -2.9953  -18.0474 H           1 TRP       0.0423
     21 H6        -28.2636   -4.6217  -18.1890 H           1 TRP       0.0423
     22 H7        -28.2545   -1.3936  -19.9472 H           1 TRP       0.0795
     23 H8        -29.1620   -1.5420  -22.2543 H           1 TRP       0.2216
     24 H9        -28.4256   -6.3922  -20.3339 H           1 TRP       0.0540
     25 H10       -29.7484   -3.5319  -24.0721 H           1 TRP       0.0541
     26 H11       -29.0800   -7.3828  -22.4783 H           1 TRP       0.0510
     27 H12       -29.7270   -5.9509  -24.3346 H           1 TRP       0.0530
@<TRIPOS>BOND
     1     2     1   1
     2     2     5   1
     3     2     3   1
     4     3     4  ar
     5     3    15  ar
     6     5     6   1
     7     6     7   2
     8     6     8   1
     9     8    11  ar
    10     8    10  ar
    11    10    12  ar
    12    10     9   1
    13     9     7   1
    14    12    14  ar
    15    14    13  ar
    16    13    11  ar
    17     1    16   1
    18     1    17   1
    19     1    18   1
    20     2    19   1
    21     5    20   1
    22     5    21   1
    23     7    22   1
    24     9    23   1
    25    11    24   1
    26    12    25   1
    27    13    26   1
    28    14    27   1
@<TRIPOS>SUBSTRUCTURE
     1  TRP      2

