@<TRIPOS>MOLECULE
3f3a_ligand_019
    27    28
SMALL
GAST_HUCK
****
This file was generated by PARSER (from files_GN.cpp)

@<TRIPOS>ATOM
      1 N         -25.0258   -3.3444  -19.3604 N.4         1 TRP       0.2336
      2 CA        -26.1340   -3.9445  -20.1164 C.3         1 TRP       0.0324
      3 C         -27.3943   -3.2885  -19.7069 C.2         1 TRP       0.0858
      4 O         -27.9972   -3.5864  -18.5329 O.co2       1 TRP      -0.5642
      5 CB        -26.1232   -5.4910  -19.9317 C.3         1 TRP       0.0190
      6 CG        -27.2887   -6.2056  -20.5083 C.2         1 TRP      -0.0392
      7 CD1       -28.2074   -6.9776  -19.7876 C.2         1 TRP       0.0167
      8 CD2       -27.7012   -6.2706  -21.8411 C.ar        1 TRP      -0.0213
      9 NE1       -29.1221   -7.4826  -20.6276 N.pl3       1 TRP      -0.2890
     10 CE2       -28.8546   -7.0607  -21.8727 C.ar        1 TRP       0.0603
     11 CE3       -27.1852   -5.7202  -23.0340 C.ar        1 TRP      -0.0747
     12 CZ2       -29.5458   -7.3037  -23.0701 C.ar        1 TRP      -0.0443
     13 CZ3       -27.8731   -5.9543  -24.2433 C.ar        1 TRP      -0.0792
     14 CH2       -29.0510   -6.7336  -24.2620 C.ar        1 TRP      -0.0768
     15 OXT       -28.0321   -2.4464  -20.5499 O.co2       1 TRP      -0.5642
     16 H1        -24.1520   -3.7909  -19.6364 H           1 TRP       0.2011
     17 H2        -25.1651   -3.4481  -18.3562 H           1 TRP       0.2011
     18 H3        -24.9769   -2.3528  -19.5839 H           1 TRP       0.2011
     19 H4        -25.9446   -3.7094  -21.1673 H           1 TRP       0.1040
     20 H5        -26.0714   -5.7031  -18.8588 H           1 TRP       0.0423
     21 H6        -25.2157   -5.8986  -20.3855 H           1 TRP       0.0423
     22 H7        -28.1948   -7.1322  -18.7781 H           1 TRP       0.0795
     23 H8        -29.8678   -8.0504  -20.3713 H           1 TRP       0.2216
     24 H9        -26.3267   -5.1633  -23.0340 H           1 TRP       0.0540
     25 H10       -30.3903   -7.8780  -23.0778 H           1 TRP       0.0541
     26 H11       -27.5135   -5.5579  -25.1119 H           1 TRP       0.0510
     27 H12       -29.5376   -6.8949  -25.1477 H           1 TRP       0.0530
@<TRIPOS>BOND
     1     2     1   1
     2     2     5   1
     3     2     3   1
     4     3     4  ar
     5     3    15  ar
     6     5     6   1
     7     6     7   2
     8     6     8   1
     9     8    11  ar
    10     8    10  ar
    11    10    12  ar
    12    10     9   1
    13     9     7   1
    14    12    14  ar
    15    14    13  ar
    16    13    11  ar
    17     1    16   1
    18     1    17   1
    19     1    18   1
    20     2    19   1
    21     5    20   1
    22     5    21   1
    23     7    22   1
    24     9    23   1
    25    11    24   1
    26    12    25   1
    27    13    26   1
    28    14    27   1
@<TRIPOS>SUBSTRUCTURE
     1  TRP      2

