@<TRIPOS>MOLECULE
3f3a_ligand_011
    27    28
SMALL
GAST_HUCK
****
This file was generated by PARSER (from files_GN.cpp)

@<TRIPOS>ATOM
      1 N         -24.8897  -11.8668  -27.3910 N.4         1 TRP       0.2336
      2 CA        -24.4021  -11.8824  -26.0000 C.3         1 TRP       0.0324
      3 C         -24.8437  -13.1339  -25.3511 C.2         1 TRP       0.0858
      4 O         -26.1587  -13.4257  -25.2233 O.co2       1 TRP      -0.5642
      5 CB        -24.8941  -10.6395  -25.2044 C.3         1 TRP       0.0190
      6 CG        -24.3009   -9.3701  -25.6817 C.2         1 TRP      -0.0392
      7 CD1       -24.9533   -8.3591  -26.3904 C.2         1 TRP       0.0167
      8 CD2       -22.9833   -8.9391  -25.5259 C.ar        1 TRP      -0.0213
      9 NE1       -24.0804   -7.3733  -26.6555 N.pl3       1 TRP      -0.2890
     10 CE2       -22.8818   -7.6922  -26.1460 C.ar        1 TRP       0.0603
     11 CE3       -21.8593   -9.5292  -24.9164 C.ar        1 TRP      -0.0747
     12 CZ2       -21.6579   -6.9978  -26.1858 C.ar        1 TRP      -0.0443
     13 CZ3       -20.6232   -8.8536  -24.9652 C.ar        1 TRP      -0.0792
     14 CH2       -20.5244   -7.5921  -25.5945 C.ar        1 TRP      -0.0768
     15 OXT       -23.9434  -14.0225  -24.8727 O.co2       1 TRP      -0.5642
     16 H1        -24.5659  -11.0277  -27.8790 H           1 TRP       0.2011
     17 H2        -25.9119  -11.8749  -27.3962 H           1 TRP       0.2011
     18 H3        -24.5466  -12.6928  -27.8893 H           1 TRP       0.2011
     19 H4        -23.3100  -11.8794  -26.0350 H           1 TRP       0.1040
     20 H5        -24.6423  -10.7495  -24.1452 H           1 TRP       0.0423
     21 H6        -25.9830  -10.5800  -25.2789 H           1 TRP       0.0423
     22 H7        -25.9323   -8.3713  -26.6846 H           1 TRP       0.0795
     23 H8        -24.2774   -6.5798  -27.1779 H           1 TRP       0.2216
     24 H9        -21.9301  -10.4367  -24.4553 H           1 TRP       0.0540
     25 H10       -21.5894   -6.0875  -26.6457 H           1 TRP       0.0541
     26 H11       -19.7959   -9.2831  -24.5456 H           1 TRP       0.0510
     27 H12       -19.6251   -7.1071  -25.6212 H           1 TRP       0.0530
@<TRIPOS>BOND
     1     2     1   1
     2     2     5   1
     3     2     3   1
     4     3     4  ar
     5     3    15  ar
     6     5     6   1
     7     6     7   2
     8     6     8   1
     9     8    11  ar
    10     8    10  ar
    11    10    12  ar
    12    10     9   1
    13     9     7   1
    14    12    14  ar
    15    14    13  ar
    16    13    11  ar
    17     1    16   1
    18     1    17   1
    19     1    18   1
    20     2    19   1
    21     5    20   1
    22     5    21   1
    23     7    22   1
    24     9    23   1
    25    11    24   1
    26    12    25   1
    27    13    26   1
    28    14    27   1
@<TRIPOS>SUBSTRUCTURE
     1  TRP      2

