@<TRIPOS>MOLECULE
3f3a_ligand_009
    27    28
SMALL
GAST_HUCK
****
This file was generated by PARSER (from files_GN.cpp)

@<TRIPOS>ATOM
      1 N         -24.9212  -12.0619  -27.6399 N.4         1 TRP       0.2336
      2 CA        -24.1246  -12.3666  -26.4296 C.3         1 TRP       0.0324
      3 C         -24.6420  -13.5640  -25.7282 C.2         1 TRP       0.0858
      4 O         -25.4986  -14.4280  -26.3247 O.co2       1 TRP      -0.5642
      5 CB        -24.0021  -11.0977  -25.5384 C.3         1 TRP       0.0190
      6 CG        -25.2737  -10.6267  -24.9373 C.2         1 TRP      -0.0392
      7 CD1       -25.9494  -11.2450  -23.8804 C.2         1 TRP       0.0167
      8 CD2       -26.0259   -9.4863  -25.2415 C.ar        1 TRP      -0.0213
      9 NE1       -27.0550  -10.5478  -23.5744 N.pl3       1 TRP      -0.2890
     10 CE2       -27.1301   -9.4851  -24.3835 C.ar        1 TRP       0.0603
     11 CE3       -25.8524   -8.4385  -26.1697 C.ar        1 TRP      -0.0747
     12 CZ2       -28.0925   -8.4638  -24.4226 C.ar        1 TRP      -0.0443
     13 CZ3       -26.8110   -7.4032  -26.2170 C.ar        1 TRP      -0.0792
     14 CH2       -27.9265   -7.4165  -25.3526 C.ar        1 TRP      -0.0768
     15 OXT       -24.1748  -13.9013  -24.5006 O.co2       1 TRP      -0.5642
     16 H1        -24.5199  -11.2664  -28.1448 H           1 TRP       0.2011
     17 H2        -25.8806  -11.8195  -27.3915 H           1 TRP       0.2011
     18 H3        -24.9390  -12.8766  -28.2554 H           1 TRP       0.2011
     19 H4        -23.1209  -12.6149  -26.7866 H           1 TRP       0.1040
     20 H5        -23.5783  -10.2937  -26.1467 H           1 TRP       0.0423
     21 H6        -23.2891  -11.2840  -24.7329 H           1 TRP       0.0423
     22 H7        -25.6461  -12.0921  -23.3969 H           1 TRP       0.0795
     23 H8        -27.6789  -10.7639  -22.8674 H           1 TRP       0.2216
     24 H9        -25.0474   -8.4253  -26.7987 H           1 TRP       0.0540
     25 H10       -28.9008   -8.4772  -23.7943 H           1 TRP       0.0541
     26 H11       -26.6937   -6.6344  -26.8816 H           1 TRP       0.0510
     27 H12       -28.6175   -6.6608  -25.4014 H           1 TRP       0.0530
@<TRIPOS>BOND
     1     2     1   1
     2     2     5   1
     3     2     3   1
     4     3     4  ar
     5     3    15  ar
     6     5     6   1
     7     6     7   2
     8     6     8   1
     9     8    11  ar
    10     8    10  ar
    11    10    12  ar
    12    10     9   1
    13     9     7   1
    14    12    14  ar
    15    14    13  ar
    16    13    11  ar
    17     1    16   1
    18     1    17   1
    19     1    18   1
    20     2    19   1
    21     5    20   1
    22     5    21   1
    23     7    22   1
    24     9    23   1
    25    11    24   1
    26    12    25   1
    27    13    26   1
    28    14    27   1
@<TRIPOS>SUBSTRUCTURE
     1  TRP      2

