@<TRIPOS>MOLECULE
3f3a_ligand_026
    27    28
SMALL
GAST_HUCK
****
This file was generated by PARSER (from files_GN.cpp)

@<TRIPOS>ATOM
      1 N         -23.7861   -4.2366  -16.7216 N.4         1 TRP       0.2336
      2 CA        -24.9187   -4.7566  -17.5051 C.3         1 TRP       0.0324
      3 C         -25.0794   -6.1814  -17.1890 C.2         1 TRP       0.0858
      4 O         -24.2050   -7.0929  -17.6691 O.co2       1 TRP      -0.5642
      5 CB        -24.7851   -4.4547  -19.0299 C.3         1 TRP       0.0190
      6 CG        -26.0307   -4.0468  -19.7312 C.2         1 TRP      -0.0392
      7 CD1       -26.9586   -3.1058  -19.2707 C.2         1 TRP       0.0167
      8 CD2       -26.4138   -4.3307  -21.0429 C.ar        1 TRP      -0.0213
      9 NE1       -27.8693   -2.8615  -20.2221 N.pl3       1 TRP      -0.2890
     10 CE2       -27.5609   -3.5778  -21.3093 C.ar        1 TRP       0.0603
     11 CE3       -25.8525   -5.1362  -22.0590 C.ar        1 TRP      -0.0747
     12 CZ2       -28.1867   -3.6001  -22.5637 C.ar        1 TRP      -0.0443
     13 CZ3       -26.4682   -5.1659  -23.3286 C.ar        1 TRP      -0.0792
     14 CH2       -27.6297   -4.4028  -23.5805 C.ar        1 TRP      -0.0768
     15 OXT       -25.8446   -6.5374  -16.1353 O.co2       1 TRP      -0.5642
     16 H1        -23.5517   -3.2978  -17.0335 H           1 TRP       0.2011
     17 H2        -22.9616   -4.8241  -16.8266 H           1 TRP       0.2011
     18 H3        -24.0292   -4.2032  -15.7324 H           1 TRP       0.2011
     19 H4        -25.7949   -4.2403  -17.1140 H           1 TRP       0.1040
     20 H5        -24.3389   -5.3145  -19.5375 H           1 TRP       0.0423
     21 H6        -24.0914   -3.6233  -19.1628 H           1 TRP       0.0423
     22 H7        -26.9466   -2.6419  -18.3634 H           1 TRP       0.0795
     23 H8        -28.6033   -2.2324  -20.1516 H           1 TRP       0.2216
     24 H9        -25.0069   -5.6785  -21.8809 H           1 TRP       0.0540
     25 H10       -29.0199   -3.0366  -22.7445 H           1 TRP       0.0541
     26 H11       -26.0659   -5.7422  -24.0734 H           1 TRP       0.0510
     27 H12       -28.0649   -4.4281  -24.5068 H           1 TRP       0.0530
@<TRIPOS>BOND
     1     2     1   1
     2     2     5   1
     3     2     3   1
     4     3     4  ar
     5     3    15  ar
     6     5     6   1
     7     6     7   2
     8     6     8   1
     9     8    11  ar
    10     8    10  ar
    11    10    12  ar
    12    10     9   1
    13     9     7   1
    14    12    14  ar
    15    14    13  ar
    16    13    11  ar
    17     1    16   1
    18     1    17   1
    19     1    18   1
    20     2    19   1
    21     5    20   1
    22     5    21   1
    23     7    22   1
    24     9    23   1
    25    11    24   1
    26    12    25   1
    27    13    26   1
    28    14    27   1
@<TRIPOS>SUBSTRUCTURE
     1  TRP      2

