@<TRIPOS>MOLECULE
3f3a_ligand_050
    27    28
SMALL
GAST_HUCK
****
This file was generated by PARSER (from files_GN.cpp)

@<TRIPOS>ATOM
      1 N         -27.3633   -2.1420  -23.3474 N.4         1 TRP       0.2336
      2 CA        -28.2276   -3.2684  -23.7417 C.3         1 TRP       0.0324
      3 C         -29.5060   -3.2301  -22.9875 C.2         1 TRP       0.0858
      4 O         -29.6317   -2.5309  -21.8337 O.co2       1 TRP      -0.5642
      5 CB        -27.4444   -4.6250  -23.6872 C.3         1 TRP       0.0190
      6 CG        -27.8141   -5.5396  -22.5857 C.2         1 TRP      -0.0392
      7 CD1       -28.6737   -6.6370  -22.6899 C.2         1 TRP       0.0167
      8 CD2       -27.4783   -5.4463  -21.2340 C.ar        1 TRP      -0.0213
      9 NE1       -28.8615   -7.1754  -21.4735 N.pl3       1 TRP      -0.2890
     10 CE2       -28.1512   -6.4792  -20.5759 C.ar        1 TRP       0.0603
     11 CE3       -26.6675   -4.5475  -20.5200 C.ar        1 TRP      -0.0747
     12 CZ2       -28.0303   -6.6562  -19.1861 C.ar        1 TRP      -0.0443
     13 CZ3       -26.5260   -4.7219  -19.1256 C.ar        1 TRP      -0.0792
     14 CH2       -27.2012   -5.7722  -18.4661 C.ar        1 TRP      -0.0768
     15 OXT       -30.5173   -4.0595  -23.3277 O.co2       1 TRP      -0.5642
     16 H1        -26.5515   -2.1047  -23.9683 H           1 TRP       0.2011
     17 H2        -27.0460   -2.2617  -22.3834 H           1 TRP       0.2011
     18 H3        -27.8840   -1.2636  -23.4267 H           1 TRP       0.2011
     19 H4        -28.4875   -3.0713  -24.7853 H           1 TRP       0.1040
     20 H5        -26.3691   -4.4413  -23.6299 H           1 TRP       0.0423
     21 H6        -27.6073   -5.1532  -24.6291 H           1 TRP       0.0423
     22 H7        -29.1310   -6.9588  -23.5462 H           1 TRP       0.0795
     23 H8        -29.4416   -7.9297  -21.2750 H           1 TRP       0.2216
     24 H9        -26.1775   -3.7871  -20.9944 H           1 TRP       0.0540
     25 H10       -28.5333   -7.4106  -18.7167 H           1 TRP       0.0541
     26 H11       -25.9318   -4.0852  -18.5907 H           1 TRP       0.0510
     27 H12       -27.0813   -5.8976  -17.4600 H           1 TRP       0.0530
@<TRIPOS>BOND
     1     2     1   1
     2     2     5   1
     3     2     3   1
     4     3     4  ar
     5     3    15  ar
     6     5     6   1
     7     6     7   2
     8     6     8   1
     9     8    11  ar
    10     8    10  ar
    11    10    12  ar
    12    10     9   1
    13     9     7   1
    14    12    14  ar
    15    14    13  ar
    16    13    11  ar
    17     1    16   1
    18     1    17   1
    19     1    18   1
    20     2    19   1
    21     5    20   1
    22     5    21   1
    23     7    22   1
    24     9    23   1
    25    11    24   1
    26    12    25   1
    27    13    26   1
    28    14    27   1
@<TRIPOS>SUBSTRUCTURE
     1  TRP      2

