@<TRIPOS>MOLECULE
3f3a_ligand_014
    27    28
SMALL
GAST_HUCK
****
This file was generated by PARSER (from files_GN.cpp)

@<TRIPOS>ATOM
      1 N         -25.7165  -10.8971  -25.8299 N.4         1 TRP       0.2336
      2 CA        -25.7443  -11.6325  -24.5532 C.3         1 TRP       0.0324
      3 C         -25.4079  -13.0439  -24.8419 C.2         1 TRP       0.0858
      4 O         -24.1795  -13.5286  -24.5569 O.co2       1 TRP      -0.5642
      5 CB        -27.1265  -11.4722  -23.8393 C.3         1 TRP       0.0190
      6 CG        -27.0671  -11.4737  -22.3571 C.2         1 TRP      -0.0392
      7 CD1       -26.3705  -12.3767  -21.5533 C.2         1 TRP       0.0167
      8 CD2       -27.6870  -10.5828  -21.4711 C.ar        1 TRP      -0.0213
      9 NE1       -26.5166  -12.0411  -20.2621 N.pl3       1 TRP      -0.2890
     10 CE2       -27.3154  -10.9650  -20.1783 C.ar        1 TRP       0.0603
     11 CE3       -28.5357   -9.4714  -21.6652 C.ar        1 TRP      -0.0747
     12 CZ2       -27.7619  -10.2619  -19.0487 C.ar        1 TRP      -0.0443
     13 CZ3       -28.9898   -8.7532  -20.5374 C.ar        1 TRP      -0.0792
     14 CH2       -28.6031   -9.1456  -19.2368 C.ar        1 TRP      -0.0768
     15 OXT       -26.1969  -13.7920  -25.6457 O.co2       1 TRP      -0.5642
     16 H1        -25.8486   -9.8974  -25.6449 H           1 TRP       0.2011
     17 H2        -26.4668  -11.2256  -26.4416 H           1 TRP       0.2011
     18 H3        -24.8224  -11.0387  -26.3008 H           1 TRP       0.2011
     19 H4        -24.9522  -11.1926  -23.9371 H           1 TRP       0.1040
     20 H5        -27.8106  -12.2705  -24.1420 H           1 TRP       0.0423
     21 H6        -27.5790  -10.5317  -24.1650 H           1 TRP       0.0423
     22 H7        -25.7987  -13.1579  -21.8845 H           1 TRP       0.0795
     23 H8        -26.1092  -12.4991  -19.5126 H           1 TRP       0.2216
     24 H9        -28.8261   -9.1865  -22.6035 H           1 TRP       0.0540
     25 H10       -27.4776  -10.5527  -18.1098 H           1 TRP       0.0541
     26 H11       -29.5994   -7.9412  -20.6596 H           1 TRP       0.0510
     27 H12       -28.9314   -8.6094  -18.4273 H           1 TRP       0.0530
@<TRIPOS>BOND
     1     2     1   1
     2     2     5   1
     3     2     3   1
     4     3     4  ar
     5     3    15  ar
     6     5     6   1
     7     6     7   2
     8     6     8   1
     9     8    11  ar
    10     8    10  ar
    11    10    12  ar
    12    10     9   1
    13     9     7   1
    14    12    14  ar
    15    14    13  ar
    16    13    11  ar
    17     1    16   1
    18     1    17   1
    19     1    18   1
    20     2    19   1
    21     5    20   1
    22     5    21   1
    23     7    22   1
    24     9    23   1
    25    11    24   1
    26    12    25   1
    27    13    26   1
    28    14    27   1
@<TRIPOS>SUBSTRUCTURE
     1  TRP      2

