@<TRIPOS>MOLECULE
3f3a_ligand_032
    27    28
SMALL
GAST_HUCK
****
This file was generated by PARSER (from files_GN.cpp)

@<TRIPOS>ATOM
      1 N         -25.9611  -10.3779  -26.2133 N.4         1 TRP       0.2336
      2 CA        -25.7695  -11.0227  -24.9044 C.3         1 TRP       0.0324
      3 C         -24.4081  -11.6042  -24.8809 C.2         1 TRP       0.0858
      4 O         -24.1796  -12.9376  -24.8656 O.co2       1 TRP      -0.5642
      5 CB        -26.9078  -12.0477  -24.6111 C.3         1 TRP       0.0190
      6 CG        -28.2203  -11.4162  -24.3287 C.2         1 TRP      -0.0392
      7 CD1       -29.3676  -11.4649  -25.1254 C.2         1 TRP       0.0167
      8 CD2       -28.5837  -10.6916  -23.1915 C.ar        1 TRP      -0.0213
      9 NE1       -30.3569  -10.7758  -24.5273 N.pl3       1 TRP      -0.2890
     10 CE2       -29.9114  -10.2888  -23.3600 C.ar        1 TRP       0.0603
     11 CE3       -27.8863  -10.3732  -22.0103 C.ar        1 TRP      -0.0747
     12 CZ2       -30.5680   -9.5139  -22.3867 C.ar        1 TRP      -0.0443
     13 CZ3       -28.5398   -9.6125  -21.0176 C.ar        1 TRP      -0.0792
     14 CH2       -29.8685   -9.1723  -21.2101 C.ar        1 TRP      -0.0768
     15 OXT       -23.3298  -10.7874  -24.8688 O.co2       1 TRP      -0.5642
     16 H1        -26.8065   -9.8097  -26.2087 H           1 TRP       0.2011
     17 H2        -26.0823  -11.0886  -26.9341 H           1 TRP       0.2011
     18 H3        -25.1577   -9.7861  -26.4400 H           1 TRP       0.2011
     19 H4        -25.7874  -10.2408  -24.1423 H           1 TRP       0.1040
     20 H5        -26.6394  -12.6549  -23.7432 H           1 TRP       0.0423
     21 H6        -27.0005  -12.7254  -25.4659 H           1 TRP       0.0423
     22 H7        -29.4557  -11.9569  -26.0160 H           1 TRP       0.0795
     23 H8        -31.2539  -10.6606  -24.8787 H           1 TRP       0.2216
     24 H9        -26.9276  -10.6973  -21.8675 H           1 TRP       0.0540
     25 H10       -31.5342   -9.2093  -22.5260 H           1 TRP       0.0541
     26 H11       -28.0450   -9.3716  -20.1558 H           1 TRP       0.0510
     27 H12       -30.3311   -8.6132  -20.4884 H           1 TRP       0.0530
@<TRIPOS>BOND
     1     2     1   1
     2     2     5   1
     3     2     3   1
     4     3     4  ar
     5     3    15  ar
     6     5     6   1
     7     6     7   2
     8     6     8   1
     9     8    11  ar
    10     8    10  ar
    11    10    12  ar
    12    10     9   1
    13     9     7   1
    14    12    14  ar
    15    14    13  ar
    16    13    11  ar
    17     1    16   1
    18     1    17   1
    19     1    18   1
    20     2    19   1
    21     5    20   1
    22     5    21   1
    23     7    22   1
    24     9    23   1
    25    11    24   1
    26    12    25   1
    27    13    26   1
    28    14    27   1
@<TRIPOS>SUBSTRUCTURE
     1  TRP      2

