@<TRIPOS>MOLECULE
3f3a_ligand_033
    27    28
SMALL
GAST_HUCK
****
This file was generated by PARSER (from files_GN.cpp)

@<TRIPOS>ATOM
      1 N         -23.9953   -4.5482  -16.8522 N.4         1 TRP       0.2336
      2 CA        -24.9561   -5.4355  -17.5324 C.3         1 TRP       0.0324
      3 C         -24.1706   -6.3489  -18.3940 C.2         1 TRP       0.0858
      4 O         -23.4058   -7.3078  -17.8220 O.co2       1 TRP      -0.5642
      5 CB        -26.0452   -4.5717  -18.2406 C.3         1 TRP       0.0190
      6 CG        -26.8605   -5.2842  -19.2510 C.2         1 TRP      -0.0392
      7 CD1       -27.8813   -6.2053  -19.0162 C.2         1 TRP       0.0167
      8 CD2       -26.7390   -5.2099  -20.6415 C.ar        1 TRP      -0.0213
      9 NE1       -28.3454   -6.6770  -20.1826 N.pl3       1 TRP      -0.2890
     10 CE2       -27.6644   -6.0990  -21.1876 C.ar        1 TRP       0.0603
     11 CE3       -25.8790   -4.4708  -21.4764 C.ar        1 TRP      -0.0747
     12 CZ2       -27.7530   -6.2992  -22.5769 C.ar        1 TRP      -0.0443
     13 CZ3       -25.9464   -4.6703  -22.8682 C.ar        1 TRP      -0.0792
     14 CH2       -26.8795   -5.5789  -23.4181 C.ar        1 TRP      -0.0768
     15 OXT       -23.8799   -6.0038  -19.6649 O.co2       1 TRP      -0.5642
     16 H1        -24.4622   -4.0082  -16.1198 H           1 TRP       0.2011
     17 H2        -23.6069   -3.8950  -17.5329 H           1 TRP       0.2011
     18 H3        -23.2230   -5.0813  -16.4436 H           1 TRP       0.2011
     19 H4        -25.4463   -6.0552  -16.7761 H           1 TRP       0.1040
     20 H5        -25.5688   -3.7107  -18.7107 H           1 TRP       0.0423
     21 H6        -26.7224   -4.1713  -17.4827 H           1 TRP       0.0423
     22 H7        -28.2209   -6.4970  -18.0947 H           1 TRP       0.0795
     23 H8        -29.0321   -7.3566  -20.2884 H           1 TRP       0.2216
     24 H9        -25.2061   -3.8093  -21.0889 H           1 TRP       0.0540
     25 H10       -28.4170   -6.9708  -22.9668 H           1 TRP       0.0541
     26 H11       -25.3094   -4.1619  -23.4854 H           1 TRP       0.0510
     27 H12       -26.9163   -5.7194  -24.4317 H           1 TRP       0.0530
@<TRIPOS>BOND
     1     2     1   1
     2     2     5   1
     3     2     3   1
     4     3     4  ar
     5     3    15  ar
     6     5     6   1
     7     6     7   2
     8     6     8   1
     9     8    11  ar
    10     8    10  ar
    11    10    12  ar
    12    10     9   1
    13     9     7   1
    14    12    14  ar
    15    14    13  ar
    16    13    11  ar
    17     1    16   1
    18     1    17   1
    19     1    18   1
    20     2    19   1
    21     5    20   1
    22     5    21   1
    23     7    22   1
    24     9    23   1
    25    11    24   1
    26    12    25   1
    27    13    26   1
    28    14    27   1
@<TRIPOS>SUBSTRUCTURE
     1  TRP      2

