@<TRIPOS>MOLECULE
3f3a_ligand_018
    27    28
SMALL
GAST_HUCK
****
This file was generated by PARSER (from files_GN.cpp)

@<TRIPOS>ATOM
      1 N         -25.7353   -3.9292  -20.4910 N.4         1 TRP       0.2336
      2 CA        -26.6159   -4.3073  -19.3643 C.3         1 TRP       0.0324
      3 C         -26.1989   -5.5987  -18.7825 C.2         1 TRP       0.0858
      4 O         -27.0525   -6.2659  -17.9600 O.co2       1 TRP      -0.5642
      5 CB        -28.1084   -4.2603  -19.8138 C.3         1 TRP       0.0190
      6 CG        -28.5029   -5.3266  -20.7657 C.2         1 TRP      -0.0392
      7 CD1       -28.7538   -6.6681  -20.4454 C.2         1 TRP       0.0167
      8 CD2       -28.6892   -5.2255  -22.1475 C.ar        1 TRP      -0.0213
      9 NE1       -29.0412   -7.3498  -21.5715 N.pl3       1 TRP      -0.2890
     10 CE2       -29.0109   -6.5074  -22.6118 C.ar        1 TRP       0.0603
     11 CE3       -28.6010   -4.1480  -23.0466 C.ar        1 TRP      -0.0747
     12 CZ2       -29.2435   -6.7566  -23.9764 C.ar        1 TRP      -0.0443
     13 CZ3       -28.8352   -4.3803  -24.4174 C.ar        1 TRP      -0.0792
     14 CH2       -29.1496   -5.6795  -24.8829 C.ar        1 TRP      -0.0768
     15 OXT       -24.8996   -5.9567  -18.7381 O.co2       1 TRP      -0.5642
     16 H1        -25.9118   -2.9538  -20.7536 H           1 TRP       0.2011
     17 H2        -25.9195   -4.5355  -21.2947 H           1 TRP       0.2011
     18 H3        -24.7515   -4.0186  -20.2330 H           1 TRP       0.2011
     19 H4        -26.4739   -3.5490  -18.5943 H           1 TRP       0.1040
     20 H5        -28.2951   -3.2823  -20.2683 H           1 TRP       0.0423
     21 H6        -28.7565   -4.3156  -18.9386 H           1 TRP       0.0423
     22 H7        -28.7283   -7.0759  -19.5105 H           1 TRP       0.0795
     23 H8        -29.2426   -8.2979  -21.6236 H           1 TRP       0.2216
     24 H9        -28.3702   -3.2065  -22.7174 H           1 TRP       0.0540
     25 H10       -29.4734   -7.6965  -24.3007 H           1 TRP       0.0541
     26 H11       -28.7746   -3.6063  -25.0838 H           1 TRP       0.0510
     27 H12       -29.3083   -5.8412  -25.8782 H           1 TRP       0.0530
@<TRIPOS>BOND
     1     2     1   1
     2     2     5   1
     3     2     3   1
     4     3     4  ar
     5     3    15  ar
     6     5     6   1
     7     6     7   2
     8     6     8   1
     9     8    11  ar
    10     8    10  ar
    11    10    12  ar
    12    10     9   1
    13     9     7   1
    14    12    14  ar
    15    14    13  ar
    16    13    11  ar
    17     1    16   1
    18     1    17   1
    19     1    18   1
    20     2    19   1
    21     5    20   1
    22     5    21   1
    23     7    22   1
    24     9    23   1
    25    11    24   1
    26    12    25   1
    27    13    26   1
    28    14    27   1
@<TRIPOS>SUBSTRUCTURE
     1  TRP      2

