@<TRIPOS>MOLECULE
3f3a_ligand_057
    27    28
SMALL
GAST_HUCK
****
This file was generated by PARSER (from files_GN.cpp)

@<TRIPOS>ATOM
      1 N         -26.4938   -5.0189  -22.9970 N.4         1 TRP       0.2336
      2 CA        -27.6635   -4.1609  -22.7456 C.3         1 TRP       0.0324
      3 C         -27.7964   -3.2085  -23.8664 C.2         1 TRP       0.0858
      4 O         -26.9200   -2.1882  -24.0107 O.co2       1 TRP      -0.5642
      5 CB        -27.5426   -3.4191  -21.3855 C.3         1 TRP       0.0190
      6 CG        -27.4955   -4.3397  -20.2283 C.2         1 TRP      -0.0392
      7 CD1       -28.5249   -5.1808  -19.8019 C.2         1 TRP       0.0167
      8 CD2       -26.4313   -4.5669  -19.3574 C.ar        1 TRP      -0.0213
      9 NE1       -28.1182   -5.8751  -18.7258 N.pl3       1 TRP      -0.2890
     10 CE2       -26.8557   -5.5264  -18.4339 C.ar        1 TRP       0.0603
     11 CE3       -25.1273   -4.0408  -19.2905 C.ar        1 TRP      -0.0747
     12 CZ2       -26.0015   -5.9794  -17.4148 C.ar        1 TRP      -0.0443
     13 CZ3       -24.2645   -4.4984  -18.2747 C.ar        1 TRP      -0.0792
     14 CH2       -24.6934   -5.4637  -17.3424 C.ar        1 TRP      -0.0768
     15 OXT       -28.7774   -3.3555  -24.7856 O.co2       1 TRP      -0.5642
     16 H1        -26.4045   -5.7058  -22.2452 H           1 TRP       0.2011
     17 H2        -25.6459   -4.4486  -23.0350 H           1 TRP       0.2011
     18 H3        -26.6116   -5.5113  -23.8855 H           1 TRP       0.2011
     19 H4        -28.5482   -4.8034  -22.7238 H           1 TRP       0.1040
     20 H5        -28.3937   -2.7460  -21.2532 H           1 TRP       0.0423
     21 H6        -26.6412   -2.8045  -21.3966 H           1 TRP       0.0423
     22 H7        -29.4437   -5.2662  -20.2379 H           1 TRP       0.0795
     23 H8        -28.6497   -6.5347  -18.2522 H           1 TRP       0.2216
     24 H9        -24.8021   -3.3448  -19.9623 H           1 TRP       0.0540
     25 H10       -26.3166   -6.6678  -16.7349 H           1 TRP       0.0541
     26 H11       -23.3214   -4.1251  -18.2045 H           1 TRP       0.0510
     27 H12       -24.0551   -5.7879  -16.6122 H           1 TRP       0.0530
@<TRIPOS>BOND
     1     2     1   1
     2     2     5   1
     3     2     3   1
     4     3     4  ar
     5     3    15  ar
     6     5     6   1
     7     6     7   2
     8     6     8   1
     9     8    11  ar
    10     8    10  ar
    11    10    12  ar
    12    10     9   1
    13     9     7   1
    14    12    14  ar
    15    14    13  ar
    16    13    11  ar
    17     1    16   1
    18     1    17   1
    19     1    18   1
    20     2    19   1
    21     5    20   1
    22     5    21   1
    23     7    22   1
    24     9    23   1
    25    11    24   1
    26    12    25   1
    27    13    26   1
    28    14    27   1
@<TRIPOS>SUBSTRUCTURE
     1  TRP      2

