@<TRIPOS>MOLECULE
3f3a_ligand_041
    27    28
SMALL
GAST_HUCK
****
This file was generated by PARSER (from files_GN.cpp)

@<TRIPOS>ATOM
      1 N         -27.0859  -11.5760  -25.4844 N.4         1 TRP       0.2336
      2 CA        -25.6544  -11.2387  -25.5120 C.3         1 TRP       0.0324
      3 C         -24.8496  -12.3299  -24.9349 C.2         1 TRP       0.0858
      4 O         -25.1909  -12.8723  -23.7452 O.co2       1 TRP      -0.5642
      5 CB        -25.3913   -9.9269  -24.7264 C.3         1 TRP       0.0190
      6 CG        -26.0559   -8.7531  -25.3326 C.2         1 TRP      -0.0392
      7 CD1       -25.6002   -8.0472  -26.4435 C.2         1 TRP       0.0167
      8 CD2       -27.2391   -8.1267  -24.9380 C.ar        1 TRP      -0.0213
      9 NE1       -26.4470   -7.0395  -26.7040 N.pl3       1 TRP      -0.2890
     10 CE2       -27.4511   -7.0590  -25.8155 C.ar        1 TRP       0.0603
     11 CE3       -28.1607   -8.3915  -23.9066 C.ar        1 TRP      -0.0747
     12 CZ2       -28.5747   -6.2226  -25.6948 C.ar        1 TRP      -0.0443
     13 CZ3       -29.2949   -7.5606  -23.7748 C.ar        1 TRP      -0.0792
     14 CH2       -29.5010   -6.4832  -24.6645 C.ar        1 TRP      -0.0768
     15 OXT       -23.7688  -12.8127  -25.5928 O.co2       1 TRP      -0.5642
     16 H1        -27.6027  -10.8193  -25.9377 H           1 TRP       0.2011
     17 H2        -27.3963  -11.6711  -24.5155 H           1 TRP       0.2011
     18 H3        -27.2457  -12.4496  -25.9914 H           1 TRP       0.2011
     19 H4        -25.3618  -11.0931  -26.5576 H           1 TRP       0.1040
     20 H5        -24.3150   -9.7339  -24.6777 H           1 TRP       0.0423
     21 H6        -25.7447  -10.0543  -23.7025 H           1 TRP       0.0423
     22 H7        -24.7532   -8.2516  -26.9770 H           1 TRP       0.0795
     23 H8        -26.3374   -6.4103  -27.4335 H           1 TRP       0.2216
     24 H9        -28.0191   -9.1736  -23.2643 H           1 TRP       0.0540
     25 H10       -28.7202   -5.4506  -26.3478 H           1 TRP       0.0541
     26 H11       -29.9751   -7.7414  -23.0324 H           1 TRP       0.0510
     27 H12       -30.3251   -5.8895  -24.5615 H           1 TRP       0.0530
@<TRIPOS>BOND
     1     2     1   1
     2     2     5   1
     3     2     3   1
     4     3     4  ar
     5     3    15  ar
     6     5     6   1
     7     6     7   2
     8     6     8   1
     9     8    11  ar
    10     8    10  ar
    11    10    12  ar
    12    10     9   1
    13     9     7   1
    14    12    14  ar
    15    14    13  ar
    16    13    11  ar
    17     1    16   1
    18     1    17   1
    19     1    18   1
    20     2    19   1
    21     5    20   1
    22     5    21   1
    23     7    22   1
    24     9    23   1
    25    11    24   1
    26    12    25   1
    27    13    26   1
    28    14    27   1
@<TRIPOS>SUBSTRUCTURE
     1  TRP      2

