@<TRIPOS>MOLECULE
3f3a_ligand_048
    27    28
SMALL
GAST_HUCK
****
This file was generated by PARSER (from files_GN.cpp)

@<TRIPOS>ATOM
      1 N         -25.7295   -9.7368  -26.9629 N.4         1 TRP       0.2336
      2 CA        -25.1314   -9.4207  -25.6563 C.3         1 TRP       0.0324
      3 C         -24.3875   -8.1510  -25.7859 C.2         1 TRP       0.0858
      4 O         -23.0451   -8.0810  -25.6557 O.co2       1 TRP      -0.5642
      5 CB        -24.2769  -10.6133  -25.1391 C.3         1 TRP       0.0190
      6 CG        -25.0998  -11.7354  -24.6321 C.2         1 TRP      -0.0392
      7 CD1       -25.8843  -11.7047  -23.4741 C.2         1 TRP       0.0167
      8 CD2       -25.2335  -13.0248  -25.1465 C.ar        1 TRP      -0.0213
      9 NE1       -26.4606  -12.9051  -23.2947 N.pl3       1 TRP      -0.2890
     10 CE2       -26.0861  -13.7192  -24.2870 C.ar        1 TRP       0.0603
     11 CE3       -24.6886  -13.6536  -26.2845 C.ar        1 TRP      -0.0747
     12 CZ2       -26.4282  -15.0652  -24.5330 C.ar        1 TRP      -0.0443
     13 CZ3       -25.0274  -14.9977  -26.5420 C.ar        1 TRP      -0.0792
     14 CH2       -25.8924  -15.6982  -25.6704 C.ar        1 TRP      -0.0768
     15 OXT       -25.0742   -6.9925  -25.8895 O.co2       1 TRP      -0.5642
     16 H1        -26.3200  -10.5689  -26.8956 H           1 TRP       0.2011
     17 H2        -25.0017   -9.9085  -27.6611 H           1 TRP       0.2011
     18 H3        -26.3060   -8.9532  -27.2771 H           1 TRP       0.2011
     19 H4        -25.9469   -9.2504  -24.9520 H           1 TRP       0.1040
     20 H5        -23.6256  -10.2876  -24.3235 H           1 TRP       0.0423
     21 H6        -23.6275  -10.9670  -25.9466 H           1 TRP       0.0423
     22 H7        -25.9913  -10.9039  -22.8497 H           1 TRP       0.0795
     23 H8        -27.0516  -13.1369  -22.5614 H           1 TRP       0.2216
     24 H9        -24.0669  -13.1463  -26.9159 H           1 TRP       0.0540
     25 H10       -27.0553  -15.5639  -23.8988 H           1 TRP       0.0541
     26 H11       -24.6482  -15.4664  -27.3670 H           1 TRP       0.0510
     27 H12       -26.1318  -16.6730  -25.8696 H           1 TRP       0.0530
@<TRIPOS>BOND
     1     2     1   1
     2     2     5   1
     3     2     3   1
     4     3     4  ar
     5     3    15  ar
     6     5     6   1
     7     6     7   2
     8     6     8   1
     9     8    11  ar
    10     8    10  ar
    11    10    12  ar
    12    10     9   1
    13     9     7   1
    14    12    14  ar
    15    14    13  ar
    16    13    11  ar
    17     1    16   1
    18     1    17   1
    19     1    18   1
    20     2    19   1
    21     5    20   1
    22     5    21   1
    23     7    22   1
    24     9    23   1
    25    11    24   1
    26    12    25   1
    27    13    26   1
    28    14    27   1
@<TRIPOS>SUBSTRUCTURE
     1  TRP      2

