@<TRIPOS>MOLECULE
3f3a_ligand_044
    27    28
SMALL
GAST_HUCK
****
This file was generated by PARSER (from files_GN.cpp)

@<TRIPOS>ATOM
      1 N         -23.9192   -5.0527  -16.9600 N.4         1 TRP       0.2336
      2 CA        -24.3443   -6.2280  -17.7387 C.3         1 TRP       0.0324
      3 C         -23.2182   -7.1916  -17.8149 C.2         1 TRP       0.0858
      4 O         -22.2038   -7.0142  -18.6902 O.co2       1 TRP      -0.5642
      5 CB        -24.8981   -5.8815  -19.1592 C.3         1 TRP       0.0190
      6 CG        -25.8288   -4.7294  -19.2610 C.2         1 TRP      -0.0392
      7 CD1       -25.5431   -3.4185  -18.8678 C.2         1 TRP       0.0167
      8 CD2       -27.0931   -4.6746  -19.8622 C.ar        1 TRP      -0.0213
      9 NE1       -26.6158   -2.6440  -19.0815 N.pl3       1 TRP      -0.2890
     10 CE2       -27.5507   -3.3615  -19.7125 C.ar        1 TRP       0.0603
     11 CE3       -27.8686   -5.6119  -20.5787 C.ar        1 TRP      -0.0747
     12 CZ2       -28.7811   -2.9359  -20.2314 C.ar        1 TRP      -0.0443
     13 CZ3       -29.0981   -5.1918  -21.1331 C.ar        1 TRP      -0.0792
     14 CH2       -29.5590   -3.8671  -20.9480 C.ar        1 TRP      -0.0768
     15 OXT       -22.9911   -8.0757  -16.8179 O.co2       1 TRP      -0.5642
     16 H1        -24.7196   -4.4329  -16.8087 H           1 TRP       0.2011
     17 H2        -23.2038   -4.5283  -17.4612 H           1 TRP       0.2011
     18 H3        -23.5319   -5.3509  -16.0568 H           1 TRP       0.2011
     19 H4        -25.1484   -6.6961  -17.1636 H           1 TRP       0.1040
     20 H5        -25.4068   -6.7709  -19.5353 H           1 TRP       0.0423
     21 H6        -24.0758   -5.6706  -19.8421 H           1 TRP       0.0423
     22 H7        -24.6591   -3.0802  -18.4942 H           1 TRP       0.0795
     23 H8        -26.6888   -1.7064  -18.8508 H           1 TRP       0.2216
     24 H9        -27.5361   -6.5660  -20.7319 H           1 TRP       0.0540
     25 H10       -29.0766   -1.9653  -20.1257 H           1 TRP       0.0541
     26 H11       -29.6522   -5.8488  -21.6854 H           1 TRP       0.0510
     27 H12       -30.4567   -3.5757  -21.3479 H           1 TRP       0.0530
@<TRIPOS>BOND
     1     2     1   1
     2     2     5   1
     3     2     3   1
     4     3     4  ar
     5     3    15  ar
     6     5     6   1
     7     6     7   2
     8     6     8   1
     9     8    11  ar
    10     8    10  ar
    11    10    12  ar
    12    10     9   1
    13     9     7   1
    14    12    14  ar
    15    14    13  ar
    16    13    11  ar
    17     1    16   1
    18     1    17   1
    19     1    18   1
    20     2    19   1
    21     5    20   1
    22     5    21   1
    23     7    22   1
    24     9    23   1
    25    11    24   1
    26    12    25   1
    27    13    26   1
    28    14    27   1
@<TRIPOS>SUBSTRUCTURE
     1  TRP      2

