@<TRIPOS>MOLECULE
3f3a_ligand_005
    27    28
SMALL
GAST_HUCK
****
This file was generated by PARSER (from files_GN.cpp)

@<TRIPOS>ATOM
      1 N         -29.5443    0.8865  -22.4471 N.4         1 TRP       0.2336
      2 CA        -28.4260    0.0370  -22.9068 C.3         1 TRP       0.0324
      3 C         -27.4587    0.9335  -23.6040 C.2         1 TRP       0.0858
      4 O         -27.7436    1.4686  -24.8087 O.co2       1 TRP      -0.5642
      5 CB        -28.9371   -1.1628  -23.7844 C.3         1 TRP       0.0190
      6 CG        -28.7136   -2.4946  -23.1880 C.2         1 TRP      -0.0392
      7 CD1       -29.6880   -3.4089  -22.7673 C.2         1 TRP       0.0167
      8 CD2       -27.4842   -3.1321  -22.9801 C.ar        1 TRP      -0.0213
      9 NE1       -29.0915   -4.5243  -22.3185 N.pl3       1 TRP      -0.2890
     10 CE2       -27.7656   -4.3898  -22.4335 C.ar        1 TRP       0.0603
     11 CE3       -26.1624   -2.7258  -23.2131 C.ar        1 TRP      -0.0747
     12 CZ2       -26.7290   -5.2795  -22.0943 C.ar        1 TRP      -0.0443
     13 CZ3       -25.1117   -3.6073  -22.8681 C.ar        1 TRP      -0.0792
     14 CH2       -25.3999   -4.8757  -22.3134 C.ar        1 TRP      -0.0768
     15 OXT       -26.5119    1.5512  -22.8733 O.co2       1 TRP      -0.5642
     16 H1        -30.2550    0.3206  -21.9742 H           1 TRP       0.2011
     17 H2        -29.9697    1.3658  -23.2405 H           1 TRP       0.2011
     18 H3        -29.1927    1.5766  -21.7852 H           1 TRP       0.2011
     19 H4        -27.9378   -0.3343  -22.0043 H           1 TRP       0.1040
     20 H5        -28.4560   -1.1621  -24.7670 H           1 TRP       0.0423
     21 H6        -30.0067   -1.0394  -23.9665 H           1 TRP       0.0423
     22 H7        -30.6987   -3.2552  -22.7835 H           1 TRP       0.0795
     23 H8        -29.5475   -5.3077  -21.9703 H           1 TRP       0.2216
     24 H9        -25.9568   -1.8126  -23.6115 H           1 TRP       0.0540
     25 H10       -26.9436   -6.1961  -21.6923 H           1 TRP       0.0541
     26 H11       -24.1451   -3.3282  -23.0213 H           1 TRP       0.0510
     27 H12       -24.6344   -5.5022  -22.0585 H           1 TRP       0.0530
@<TRIPOS>BOND
     1     2     1   1
     2     2     5   1
     3     2     3   1
     4     3     4  ar
     5     3    15  ar
     6     5     6   1
     7     6     7   2
     8     6     8   1
     9     8    11  ar
    10     8    10  ar
    11    10    12  ar
    12    10     9   1
    13     9     7   1
    14    12    14  ar
    15    14    13  ar
    16    13    11  ar
    17     1    16   1
    18     1    17   1
    19     1    18   1
    20     2    19   1
    21     5    20   1
    22     5    21   1
    23     7    22   1
    24     9    23   1
    25    11    24   1
    26    12    25   1
    27    13    26   1
    28    14    27   1
@<TRIPOS>SUBSTRUCTURE
     1  TRP      2

