@<TRIPOS>MOLECULE
3f3a_ligand_036
    27    28
SMALL
GAST_HUCK
****
This file was generated by PARSER (from files_GN.cpp)

@<TRIPOS>ATOM
      1 N         -25.7985  -10.2159  -25.7716 N.4         1 TRP       0.2336
      2 CA        -25.5737  -11.2665  -24.7618 C.3         1 TRP       0.0324
      3 C         -24.9825  -12.4838  -25.3718 C.2         1 TRP       0.0858
      4 O         -24.9637  -12.6822  -26.7084 O.co2       1 TRP      -0.5642
      5 CB        -26.9065  -11.5532  -24.0111 C.3         1 TRP       0.0190
      6 CG        -26.8120  -12.6098  -22.9747 C.2         1 TRP      -0.0392
      7 CD1       -26.2901  -12.4662  -21.6878 C.2         1 TRP       0.0167
      8 CD2       -27.2074  -13.9429  -23.0832 C.ar        1 TRP      -0.0213
      9 NE1       -26.3699  -13.6453  -21.0442 N.pl3       1 TRP      -0.2890
     10 CE2       -26.9214  -14.5565  -21.8604 C.ar        1 TRP       0.0603
     11 CE3       -27.7792  -14.6818  -24.1375 C.ar        1 TRP      -0.0747
     12 CZ2       -27.2045  -15.9164  -21.6446 C.ar        1 TRP      -0.0443
     13 CZ3       -28.0649  -16.0479  -23.9332 C.ar        1 TRP      -0.0792
     14 CH2       -27.7764  -16.6629  -22.6947 C.ar        1 TRP      -0.0768
     15 OXT       -24.1098  -13.2179  -24.6487 O.co2       1 TRP      -0.5642
     16 H1        -26.0216   -9.3375  -25.3015 H           1 TRP       0.2011
     17 H2        -26.5757  -10.4688  -26.3904 H           1 TRP       0.2011
     18 H3        -24.9494  -10.0883  -26.3281 H           1 TRP       0.2011
     19 H4        -24.8511  -10.8639  -24.0455 H           1 TRP       0.1040
     20 H5        -27.6701  -11.8255  -24.7438 H           1 TRP       0.0423
     21 H6        -27.2479  -10.6332  -23.5244 H           1 TRP       0.0423
     22 H7        -25.9207  -11.6013  -21.2847 H           1 TRP       0.0795
     23 H8        -26.0764  -13.8108  -20.1352 H           1 TRP       0.2216
     24 H9        -27.9687  -14.2474  -25.0411 H           1 TRP       0.0540
     25 H10       -26.9883  -16.3556  -20.7479 H           1 TRP       0.0541
     26 H11       -28.4784  -16.5975  -24.6884 H           1 TRP       0.0510
     27 H12       -27.9764  -17.6555  -22.5646 H           1 TRP       0.0530
@<TRIPOS>BOND
     1     2     1   1
     2     2     5   1
     3     2     3   1
     4     3     4  ar
     5     3    15  ar
     6     5     6   1
     7     6     7   2
     8     6     8   1
     9     8    11  ar
    10     8    10  ar
    11    10    12  ar
    12    10     9   1
    13     9     7   1
    14    12    14  ar
    15    14    13  ar
    16    13    11  ar
    17     1    16   1
    18     1    17   1
    19     1    18   1
    20     2    19   1
    21     5    20   1
    22     5    21   1
    23     7    22   1
    24     9    23   1
    25    11    24   1
    26    12    25   1
    27    13    26   1
    28    14    27   1
@<TRIPOS>SUBSTRUCTURE
     1  TRP      2

