@<TRIPOS>MOLECULE
3f3a_ligand_056
    27    28
SMALL
GAST_HUCK
****
This file was generated by PARSER (from files_GN.cpp)

@<TRIPOS>ATOM
      1 N         -28.9018    0.6984  -22.5399 N.4         1 TRP       0.2336
      2 CA        -27.5610    0.0923  -22.4628 C.3         1 TRP       0.0324
      3 C         -26.8720    0.2854  -23.7597 C.2         1 TRP       0.0858
      4 O         -25.7512   -0.4289  -24.0095 O.co2       1 TRP      -0.5642
      5 CB        -27.6116   -1.3972  -21.9776 C.3         1 TRP       0.0190
      6 CG        -28.4859   -2.2847  -22.7708 C.2         1 TRP      -0.0392
      7 CD1       -28.0794   -3.2370  -23.7061 C.2         1 TRP       0.0167
      8 CD2       -29.8826   -2.3165  -22.7663 C.ar        1 TRP      -0.0213
      9 NE1       -29.1661   -3.7954  -24.2668 N.pl3       1 TRP      -0.2890
     10 CE2       -30.2662   -3.2376  -23.7340 C.ar        1 TRP       0.0603
     11 CE3       -30.8453   -1.6124  -22.0134 C.ar        1 TRP      -0.0747
     12 CZ2       -31.6271   -3.4522  -24.0224 C.ar        1 TRP      -0.0443
     13 CZ3       -32.2088   -1.7863  -22.3277 C.ar        1 TRP      -0.0792
     14 CH2       -32.5935   -2.6840  -23.3333 C.ar        1 TRP      -0.0768
     15 OXT       -26.9547    1.4863  -24.3832 O.co2       1 TRP      -0.5642
     16 H1        -29.3468    0.6496  -21.6290 H           1 TRP       0.2011
     17 H2        -29.4690    0.1966  -23.2248 H           1 TRP       0.2011
     18 H3        -28.8466    1.6781  -22.8192 H           1 TRP       0.2011
     19 H4        -27.0086    0.6689  -21.7201 H           1 TRP       0.1040
     20 H5        -27.9538   -1.4189  -20.9356 H           1 TRP       0.0423
     21 H6        -26.6036   -1.8055  -21.9823 H           1 TRP       0.0423
     22 H7        -27.1085   -3.4588  -23.9510 H           1 TRP       0.0795
     23 H8        -29.1502   -4.4729  -24.9577 H           1 TRP       0.2216
     24 H9        -30.5768   -0.9704  -21.2743 H           1 TRP       0.0540
     25 H10       -31.9095   -4.1318  -24.7230 H           1 TRP       0.0541
     26 H11       -32.9072   -1.2438  -21.8203 H           1 TRP       0.0510
     27 H12       -33.5845   -2.7988  -23.5511 H           1 TRP       0.0530
@<TRIPOS>BOND
     1     2     1   1
     2     2     5   1
     3     2     3   1
     4     3     4  ar
     5     3    15  ar
     6     5     6   1
     7     6     7   2
     8     6     8   1
     9     8    11  ar
    10     8    10  ar
    11    10    12  ar
    12    10     9   1
    13     9     7   1
    14    12    14  ar
    15    14    13  ar
    16    13    11  ar
    17     1    16   1
    18     1    17   1
    19     1    18   1
    20     2    19   1
    21     5    20   1
    22     5    21   1
    23     7    22   1
    24     9    23   1
    25    11    24   1
    26    12    25   1
    27    13    26   1
    28    14    27   1
@<TRIPOS>SUBSTRUCTURE
     1  TRP      2

