@<TRIPOS>MOLECULE
3f3c_ligand_007
    23    23
SMALL
GAST_HUCK
****
This file was generated by PARSER (from files_GN.cpp)

@<TRIPOS>ATOM
      1 N          27.4201   32.2501   18.6014 N.4         1 PFF       0.2341
      2 CA         27.2172   31.8654   20.0113 C.3         1 PFF       0.0373
      3 C          26.0192   32.5454   20.5590 C.2         1 PFF       0.0865
      4 O          25.8235   32.6154   21.8955 O.co2       1 PFF      -0.5641
      5 OXT        24.9064   32.6257   19.7991 O.co2       1 PFF      -0.5641
      6 CB         28.5217   32.0668   20.8485 C.3         1 PFF       0.0343
      7 CG         28.8083   33.4721   21.2488 C.ar        1 PFF      -0.0398
      8 CD1        29.3200   34.4022   20.3156 C.ar        1 PFF      -0.0617
      9 CD2        28.5205   33.9308   22.5593 C.ar        1 PFF      -0.0617
     10 CE1        29.5502   35.7415   20.6797 C.ar        1 PFF      -0.0349
     11 CE2        28.7274   35.2770   22.9213 C.ar        1 PFF      -0.0349
     12 CZ         29.2421   36.1861   21.9817 C.ar        1 PFF       0.1248
     13 F          29.4452   37.4298   22.3101 F           1 PFF      -0.1893
     14 H1         28.2022   31.7199   18.2143 H           1 PFF       0.2012
     15 H2         27.6111   33.2511   18.5319 H           1 PFF       0.2012
     16 H3         26.5776   32.0389   18.0595 H           1 PFF       0.2012
     17 H4         26.9962   30.7881   20.0087 H           1 PFF       0.1048
     18 H5         29.3771   31.6847   20.2822 H           1 PFF       0.0493
     19 H6         28.4526   31.4424   21.7388 H           1 PFF       0.0493
     20 H7         29.5531   34.1065   19.3663 H           1 PFF       0.0547
     21 H8         28.1417   33.2877   23.2634 H           1 PFF       0.0547
     22 H9         29.9242   36.3978   19.9877 H           1 PFF       0.0587
     23 H10        28.4961   35.5897   23.8705 H           1 PFF       0.0587
@<TRIPOS>BOND
     1     1     2   1
     2     2     3   1
     3     2     6   1
     4     3     4  ar
     5     3     5  ar
     6     6     7   1
     7     7     8  ar
     8     7     9  ar
     9     8    10  ar
    10     9    11  ar
    11    10    12  ar
    12    11    12  ar
    13    12    13   1
    14     1    14   1
    15     1    15   1
    16     1    16   1
    17     2    17   1
    18     6    18   1
    19     6    19   1
    20     8    20   1
    21     9    21   1
    22    10    22   1
    23    11    23   1
@<TRIPOS>SUBSTRUCTURE
     1  PFF      2

