@<TRIPOS>MOLECULE
3f3c_ligand_008
    23    23
SMALL
GAST_HUCK
****
This file was generated by PARSER (from files_GN.cpp)

@<TRIPOS>ATOM
      1 N          26.9538   30.9884   20.4741 N.4         1 PFF       0.2341
      2 CA         27.2974   32.4143   20.6241 C.3         1 PFF       0.0373
      3 C          28.5747   32.7486   19.9535 C.2         1 PFF       0.0865
      4 O          29.3670   31.7856   19.4319 O.co2       1 PFF      -0.5641
      5 OXT        29.0733   34.0130   20.0401 O.co2       1 PFF      -0.5641
      6 CB         27.2267   32.8631   22.1204 C.3         1 PFF       0.0343
      7 CG         28.4660   32.8320   22.9701 C.ar        1 PFF      -0.0398
      8 CD1        28.6268   33.7885   24.0032 C.ar        1 PFF      -0.0617
      9 CD2        29.4706   31.8400   22.8243 C.ar        1 PFF      -0.0617
     10 CE1        29.7549   33.7869   24.8384 C.ar        1 PFF      -0.0349
     11 CE2        30.6287   31.8664   23.6273 C.ar        1 PFF      -0.0349
     12 CZ         30.7696   32.8327   24.6413 C.ar        1 PFF       0.1248
     13 F          31.8408   32.8583   25.3921 F           1 PFF      -0.1893
     14 H1         25.9999   30.8458   20.8011 H           1 PFF       0.2012
     15 H2         27.6036   30.4184   21.0191 H           1 PFF       0.2012
     16 H3         27.0136   30.7233   19.4871 H           1 PFF       0.2012
     17 H4         26.5131   32.9443   20.0774 H           1 PFF       0.1048
     18 H5         26.4695   32.2687   22.6224 H           1 PFF       0.0493
     19 H6         26.8504   33.8879   22.1030 H           1 PFF       0.0493
     20 H7         27.8998   34.4955   24.1678 H           1 PFF       0.0547
     21 H8         29.3863   31.1099   22.1089 H           1 PFF       0.0547
     22 H9         29.8478   34.4971   25.5680 H           1 PFF       0.0587
     23 H10        31.3600   31.1678   23.4876 H           1 PFF       0.0587
@<TRIPOS>BOND
     1     1     2   1
     2     2     3   1
     3     2     6   1
     4     3     4  ar
     5     3     5  ar
     6     6     7   1
     7     7     8  ar
     8     7     9  ar
     9     8    10  ar
    10     9    11  ar
    11    10    12  ar
    12    11    12  ar
    13    12    13   1
    14     1    14   1
    15     1    15   1
    16     1    16   1
    17     2    17   1
    18     6    18   1
    19     6    19   1
    20     8    20   1
    21     9    21   1
    22    10    22   1
    23    11    23   1
@<TRIPOS>SUBSTRUCTURE
     1  PFF      2

