@<TRIPOS>MOLECULE
3f3c_ligand_001
    23    23
SMALL
GAST_HUCK
****
This file was generated by PARSER (from files_GN.cpp)

@<TRIPOS>ATOM
      1 N          25.6274   32.2353   19.0645 N.4         1 PFF       0.2341
      2 CA         26.8227   31.5263   19.5483 C.3         1 PFF       0.0373
      3 C          26.8730   30.1628   18.9788 C.2         1 PFF       0.0865
      4 O          25.7554   29.4194   18.7814 O.co2       1 PFF      -0.5641
      5 OXT        28.0548   29.6288   18.5942 O.co2       1 PFF      -0.5641
      6 CB         26.8744   31.5372   21.1128 C.3         1 PFF       0.0343
      7 CG         28.1812   31.6791   21.8324 C.ar        1 PFF      -0.0398
      8 CD1        28.1273   31.9717   23.2159 C.ar        1 PFF      -0.0617
      9 CD2        29.4579   31.5575   21.2318 C.ar        1 PFF      -0.0617
     10 CE1        29.2935   32.1510   23.9770 C.ar        1 PFF      -0.0349
     11 CE2        30.6313   31.7462   21.9898 C.ar        1 PFF      -0.0349
     12 CZ         30.5485   32.0305   23.3680 C.ar        1 PFF       0.1248
     13 F          31.6386   32.1833   24.0710 F           1 PFF      -0.1893
     14 H1         25.6657   33.2102   19.3723 H           1 PFF       0.2012
     15 H2         24.7901   31.7896   19.4410 H           1 PFF       0.2012
     16 H3         25.6054   32.2095   18.0467 H           1 PFF       0.2012
     17 H4         27.6516   32.1079   19.1420 H           1 PFF       0.1048
     18 H5         26.4018   30.6237   21.4951 H           1 PFF       0.0493
     19 H6         26.2457   32.3716   21.4497 H           1 PFF       0.0493
     20 H7         27.2211   32.0733   23.6831 H           1 PFF       0.0547
     21 H8         29.5508   31.3271   20.2417 H           1 PFF       0.0547
     22 H9         29.2197   32.3765   24.9731 H           1 PFF       0.0587
     23 H10        31.5454   31.6851   21.5395 H           1 PFF       0.0587
@<TRIPOS>BOND
     1     1     2   1
     2     2     3   1
     3     2     6   1
     4     3     4  ar
     5     3     5  ar
     6     6     7   1
     7     7     8  ar
     8     7     9  ar
     9     8    10  ar
    10     9    11  ar
    11    10    12  ar
    12    11    12  ar
    13    12    13   1
    14     1    14   1
    15     1    15   1
    16     1    16   1
    17     2    17   1
    18     6    18   1
    19     6    19   1
    20     8    20   1
    21     9    21   1
    22    10    22   1
    23    11    23   1
@<TRIPOS>SUBSTRUCTURE
     1  PFF      2

