@<TRIPOS>MOLECULE
3f3c_ligand_013
    23    23
SMALL
GAST_HUCK
****
This file was generated by PARSER (from files_GN.cpp)

@<TRIPOS>ATOM
      1 N          29.7076   35.3089   25.5658 N.4         1 PFF       0.2341
      2 CA         29.2640   34.8543   24.2309 C.3         1 PFF       0.0373
      3 C          27.9855   35.5067   23.8800 C.2         1 PFF       0.0865
      4 O          27.4773   35.3652   22.6288 O.co2       1 PFF      -0.5641
      5 OXT        27.3704   36.3986   24.6915 O.co2       1 PFF      -0.5641
      6 CB         29.3191   33.2901   24.2004 C.3         1 PFF       0.0343
      7 CG         28.6011   32.5865   23.0860 C.ar        1 PFF      -0.0398
      8 CD1        27.2200   32.7607   22.9461 C.ar        1 PFF      -0.0617
      9 CD2        29.2661   31.6847   22.2107 C.ar        1 PFF      -0.0617
     10 CE1        26.5058   32.1162   21.8907 C.ar        1 PFF      -0.0349
     11 CE2        28.5603   31.0174   21.1963 C.ar        1 PFF      -0.0349
     12 CZ         27.1710   31.2405   21.0353 C.ar        1 PFF       0.1248
     13 F          26.5181   30.6302   20.0824 F           1 PFF      -0.1893
     14 H1         30.6417   34.9451   25.7624 H           1 PFF       0.2012
     15 H2         29.0577   34.9687   26.2745 H           1 PFF       0.2012
     16 H3         29.7329   36.3297   25.5925 H           1 PFF       0.2012
     17 H4         29.9921   35.2374   23.5181 H           1 PFF       0.1048
     18 H5         28.9313   32.8902   25.1392 H           1 PFF       0.0493
     19 H6         30.3758   33.0085   24.1818 H           1 PFF       0.0493
     20 H7         26.6982   33.3611   23.5729 H           1 PFF       0.0547
     21 H8         30.2702   31.5120   22.3050 H           1 PFF       0.0547
     22 H9         25.5092   32.3061   21.7834 H           1 PFF       0.0587
     23 H10        29.0443   30.3790   20.5638 H           1 PFF       0.0587
@<TRIPOS>BOND
     1     1     2   1
     2     2     3   1
     3     2     6   1
     4     3     4  ar
     5     3     5  ar
     6     6     7   1
     7     7     8  ar
     8     7     9  ar
     9     8    10  ar
    10     9    11  ar
    11    10    12  ar
    12    11    12  ar
    13    12    13   1
    14     1    14   1
    15     1    15   1
    16     1    16   1
    17     2    17   1
    18     6    18   1
    19     6    19   1
    20     8    20   1
    21     9    21   1
    22    10    22   1
    23    11    23   1
@<TRIPOS>SUBSTRUCTURE
     1  PFF      2

