@<TRIPOS>MOLECULE
3f3c_ligand_003
    23    23
SMALL
GAST_HUCK
****
This file was generated by PARSER (from files_GN.cpp)

@<TRIPOS>ATOM
      1 N          25.2589   31.0493   18.2520 N.4         1 PFF       0.2341
      2 CA         26.6730   30.6554   18.1300 C.3         1 PFF       0.0373
      3 C          26.9139   29.4000   18.8769 C.2         1 PFF       0.0865
      4 O          25.9044   28.5224   19.0479 O.co2       1 PFF      -0.5641
      5 OXT        28.1710   28.9045   18.9623 O.co2       1 PFF      -0.5641
      6 CB         27.6268   31.8317   18.5067 C.3         1 PFF       0.0343
      7 CG         27.8479   32.0527   19.9645 C.ar        1 PFF      -0.0398
      8 CD1        29.1223   31.8109   20.5390 C.ar        1 PFF      -0.0617
      9 CD2        26.8056   32.5023   20.8063 C.ar        1 PFF      -0.0617
     10 CE1        29.3294   31.9542   21.9177 C.ar        1 PFF      -0.0349
     11 CE2        27.0115   32.6560   22.1911 C.ar        1 PFF      -0.0349
     12 CZ         28.2704   32.3692   22.7501 C.ar        1 PFF       0.1248
     13 F          28.4599   32.4854   24.0352 F           1 PFF      -0.1893
     14 H1         25.1130   31.9191   17.7435 H           1 PFF       0.2012
     15 H2         24.9996   31.1699   19.2307 H           1 PFF       0.2012
     16 H3         24.6680   30.3223   17.8362 H           1 PFF       0.2012
     17 H4         26.8309   30.4266   17.0739 H           1 PFF       0.1048
     18 H5         27.2472   32.7633   18.0782 H           1 PFF       0.0493
     19 H6         28.5774   31.6351   18.0079 H           1 PFF       0.0493
     20 H7         29.9034   31.5074   19.9556 H           1 PFF       0.0547
     21 H8         25.8799   32.7160   20.4275 H           1 PFF       0.0547
     22 H9         30.2488   31.7493   22.3168 H           1 PFF       0.0587
     23 H10        26.2388   32.9743   22.7816 H           1 PFF       0.0587
@<TRIPOS>BOND
     1     1     2   1
     2     2     3   1
     3     2     6   1
     4     3     4  ar
     5     3     5  ar
     6     6     7   1
     7     7     8  ar
     8     7     9  ar
     9     8    10  ar
    10     9    11  ar
    11    10    12  ar
    12    11    12  ar
    13    12    13   1
    14     1    14   1
    15     1    15   1
    16     1    16   1
    17     2    17   1
    18     6    18   1
    19     6    19   1
    20     8    20   1
    21     9    21   1
    22    10    22   1
    23    11    23   1
@<TRIPOS>SUBSTRUCTURE
     1  PFF      2

