@<TRIPOS>MOLECULE
3f3e_ligand_008
    22    21
SMALL
GAST_HUCK
****
This file was generated by PARSER (from files_GN.cpp)

@<TRIPOS>ATOM
      1 N          25.8082   30.7834   22.1622 N.4         1 LEU       0.2327
      2 CA         25.6821   32.1821   21.7296 C.3         1 LEU       0.0286
      3 C          25.4896   32.2210   20.2629 C.2         1 LEU       0.0844
      4 O          24.9070   33.3295   19.7052 O.co2       1 LEU      -0.5643
      5 CB         26.8513   33.0908   22.2452 C.3         1 LEU       0.0047
      6 CG         28.2001   33.1791   21.4651 C.3         1 LEU      -0.0400
      7 CD1        28.8713   31.8070   21.1976 C.3         1 LEU      -0.0624
      8 CD2        28.1550   34.0274   20.1688 C.3         1 LEU      -0.0624
      9 OXT        25.7056   31.1674   19.4753 O.co2       1 LEU      -0.5643
     10 H1         25.8793   30.7403   23.1942 H           1 LEU       0.2010
     11 H2         26.6143   30.3193   21.7542 H           1 LEU       0.2010
     12 H3         24.9557   30.2995   21.8802 H           1 LEU       0.2010
     13 H4         24.7706   32.5304   22.1847 H           1 LEU       0.1024
     14 H5         27.0604   32.7896   23.2666 H           1 LEU       0.0341
     15 H6         26.4457   34.1197   22.3164 H           1 LEU       0.0341
     16 H7         28.8976   33.7194   22.1359 H           1 LEU       0.0298
     17 H8         29.8680   31.9404   20.7959 H           1 LEU       0.0232
     18 H9         28.2742   31.2371   20.4570 H           1 LEU       0.0232
     19 H10        28.9334   31.2230   22.1172 H           1 LEU       0.0232
     20 H11        27.6960   35.0018   20.3539 H           1 LEU       0.0232
     21 H12        27.5825   33.5169   19.3868 H           1 LEU       0.0232
     22 H13        29.1595   34.1921   19.7866 H           1 LEU       0.0232
@<TRIPOS>BOND
     1     1     2   1
     2     2     3   1
     3     2     5   1
     4     3     4  ar
     5     3     9  ar
     6     5     6   1
     7     6     7   1
     8     6     8   1
     9     1    10   1
    10     1    11   1
    11     1    12   1
    12     2    13   1
    13     5    14   1
    14     5    15   1
    15     6    16   1
    16     7    17   1
    17     7    18   1
    18     7    19   1
    19     8    20   1
    20     8    21   1
    21     8    22   1
@<TRIPOS>SUBSTRUCTURE
     1  LEU      2

