@<TRIPOS>MOLECULE
3f3e_ligand_004
    22    21
SMALL
GAST_HUCK
****
This file was generated by PARSER (from files_GN.cpp)

@<TRIPOS>ATOM
      1 N          26.4908   30.8311   22.3943 N.4         1 LEU       0.2327
      2 CA         27.6998   30.7258   21.5601 C.3         1 LEU       0.0286
      3 C          28.6700   31.8077   21.8785 C.2         1 LEU       0.0844
      4 O          29.8642   31.8067   21.2499 O.co2       1 LEU      -0.5643
      5 CB         27.3850   30.5892   20.0240 C.3         1 LEU       0.0047
      6 CG         25.9543   30.9591   19.5027 C.3         1 LEU      -0.0400
      7 CD1        25.7411   32.4910   19.3416 C.3         1 LEU      -0.0624
      8 CD2        25.6799   30.2495   18.1451 C.3         1 LEU      -0.0624
      9 OXT        28.6019   32.4595   23.0779 O.co2       1 LEU      -0.5643
     10 H1         25.8199   30.0964   22.1598 H           1 LEU       0.2010
     11 H2         26.0469   31.7432   22.2732 H           1 LEU       0.2010
     12 H3         26.7525   30.7307   23.3786 H           1 LEU       0.2010
     13 H4         28.1777   29.7909   21.8814 H           1 LEU       0.1024
     14 H5         27.5789   29.5381   19.7618 H           1 LEU       0.0341
     15 H6         28.1163   31.1710   19.4497 H           1 LEU       0.0341
     16 H7         25.2310   30.5716   20.2298 H           1 LEU       0.0298
     17 H8         24.6975   32.6829   19.0888 H           1 LEU       0.0232
     18 H9         26.3795   32.8793   18.5484 H           1 LEU       0.0232
     19 H10        25.9716   33.0061   20.2749 H           1 LEU       0.0232
     20 H11        25.7149   29.1637   18.2812 H           1 LEU       0.0232
     21 H12        26.4269   30.5433   17.4005 H           1 LEU       0.0232
     22 H13        24.6837   30.5158   17.7748 H           1 LEU       0.0232
@<TRIPOS>BOND
     1     1     2   1
     2     2     3   1
     3     2     5   1
     4     3     4  ar
     5     3     9  ar
     6     5     6   1
     7     6     7   1
     8     6     8   1
     9     1    10   1
    10     1    11   1
    11     1    12   1
    12     2    13   1
    13     5    14   1
    14     5    15   1
    15     6    16   1
    16     7    17   1
    17     7    18   1
    18     7    19   1
    19     8    20   1
    20     8    21   1
    21     8    22   1
@<TRIPOS>SUBSTRUCTURE
     1  LEU      2

