@<TRIPOS>MOLECULE
3f80_ligand_010
    24    23
SMALL
GAST_HUCK
****
This file was generated by PARSER (from files_GN.cpp)

@<TRIPOS>ATOM
      1 N1         18.2843  -17.6337    7.9965 N.2         1 MOL       0.2909
      2 N          22.3246  -14.8605    3.9883 N.4         1 MOL       0.2327
      3 CA         22.2946  -15.2401    5.4105 C.3         1 MOL       0.0283
      4 C          23.1989  -16.3853    5.6298 C.2         1 MOL       0.0844
      5 OXT        23.0683  -17.5229    4.9121 O.co2       1 MOL      -0.5643
      6 O          24.1646  -16.3283    6.5743 O.co2       1 MOL      -0.5643
      7 CB         20.8276  -15.4943    5.8598 C.3         1 MOL       0.0025
      8 CG         20.5684  -15.4613    7.3941 C.3         1 MOL      -0.0441
      9 CD         20.6214  -16.8189    8.1503 C.3         1 MOL      -0.0202
     10 CE         19.6223  -17.9185    7.6937 C.3         1 MOL       0.1665
     11 O2         17.6098  -16.8022    7.3086 O.2         1 MOL       0.1861
     12 O1         17.7009  -18.2508    8.7984 O.2         1 MOL       0.1861
     13 H1         21.6552  -14.1035    3.8322 H           1 MOL       0.2010
     14 H2         22.0720  -15.6410    3.3753 H           1 MOL       0.2010
     15 H3         23.2612  -14.5262    3.7571 H           1 MOL       0.2010
     16 H4         22.6797  -14.3797    5.9638 H           1 MOL       0.1024
     17 H5         20.4686  -16.4311    5.4312 H           1 MOL       0.0339
     18 H6         20.2158  -14.6972    5.4270 H           1 MOL       0.0339
     19 H7         19.5859  -15.0161    7.5611 H           1 MOL       0.0269
     20 H8         21.2917  -14.7835    7.8559 H           1 MOL       0.0269
     21 H9         20.4383  -16.6230    9.2107 H           1 MOL       0.0290
     22 H10        21.6330  -17.2216    8.0788 H           1 MOL       0.0290
     23 H11        19.7204  -18.0952    6.6226 H           1 MOL       0.0652
     24 H12        19.9279  -18.8509    8.1829 H           1 MOL       0.0652
@<TRIPOS>BOND
     1    10     1   1
     2     1    11   2
     3     1    12   2
     4     3     2   1
     5     3     4   1
     6     7     3   1
     7     4     5  ar
     8     4     6  ar
     9     8     7   1
    10     9     8   1
    11     9    10   1
    12     2    13   1
    13     2    14   1
    14     2    15   1
    15     3    16   1
    16     7    17   1
    17     7    18   1
    18     8    19   1
    19     8    20   1
    20     9    21   1
    21     9    22   1
    22    10    23   1
    23    10    24   1
@<TRIPOS>SUBSTRUCTURE
     1  MOL      3

