@<TRIPOS>MOLECULE
3f80_ligand_008
    24    23
SMALL
GAST_HUCK
****
This file was generated by PARSER (from files_GN.cpp)

@<TRIPOS>ATOM
      1 N1         21.1451  -16.5639   10.2182 N.2         1 MOL       0.2909
      2 N          22.0807  -14.8223    4.0627 N.4         1 MOL       0.2327
      3 CA         22.1311  -15.5304    5.3514 C.3         1 MOL       0.0283
      4 C          23.4106  -16.2387    5.4024 C.2         1 MOL       0.0844
      5 OXT        24.4144  -15.7869    6.1844 O.co2       1 MOL      -0.5643
      6 O          23.6176  -17.3688    4.6694 O.co2       1 MOL      -0.5643
      7 CB         20.8545  -16.4181    5.5622 C.3         1 MOL       0.0025
      8 CG         20.9362  -17.6071    6.5836 C.3         1 MOL      -0.0441
      9 CD         21.6434  -17.2824    7.9407 C.3         1 MOL      -0.0202
     10 CE         20.7584  -17.4713    9.2204 C.3         1 MOL       0.1665
     11 O2         22.1269  -16.8544   10.9853 O.2         1 MOL       0.1861
     12 O1         20.8140  -15.4395   10.1426 O.2         1 MOL       0.1861
     13 H1         21.2611  -14.2253    4.0324 H           1 MOL       0.2010
     14 H2         22.0358  -15.4697    3.2821 H           1 MOL       0.2010
     15 H3         22.9082  -14.2401    3.9752 H           1 MOL       0.2010
     16 H4         22.1340  -14.7605    6.1302 H           1 MOL       0.1024
     17 H5         20.5776  -16.8558    4.5975 H           1 MOL       0.0339
     18 H6         20.0392  -15.7598    5.8603 H           1 MOL       0.0339
     19 H7         21.4686  -18.4333    6.1025 H           1 MOL       0.0269
     20 H8         19.9084  -17.9497    6.7834 H           1 MOL       0.0269
     21 H9         22.0374  -16.2682    7.9052 H           1 MOL       0.0290
     22 H10        22.5153  -17.9461    8.0436 H           1 MOL       0.0290
     23 H11        19.6896  -17.3421    8.9601 H           1 MOL       0.0652
     24 H12        20.8900  -18.4934    9.6036 H           1 MOL       0.0652
@<TRIPOS>BOND
     1    10     1   1
     2     1    11   2
     3     1    12   2
     4     3     2   1
     5     3     4   1
     6     7     3   1
     7     4     5  ar
     8     4     6  ar
     9     8     7   1
    10     9     8   1
    11     9    10   1
    12     2    13   1
    13     2    14   1
    14     2    15   1
    15     3    16   1
    16     7    17   1
    17     7    18   1
    18     8    19   1
    19     8    20   1
    20     9    21   1
    21     9    22   1
    22    10    23   1
    23    10    24   1
@<TRIPOS>SUBSTRUCTURE
     1  MOL      3

