@<TRIPOS>MOLECULE
3f80_ligand_004
    24    23
SMALL
GAST_HUCK
****
This file was generated by PARSER (from files_GN.cpp)

@<TRIPOS>ATOM
      1 N1         21.2458  -16.8337    8.6974 N.2         1 MOL       0.2909
      2 N          21.9685  -15.0111    3.8978 N.4         1 MOL       0.2327
      3 CA         21.5484  -16.0243    4.8887 C.3         1 MOL       0.0283
      4 C          20.9564  -15.3134    6.0450 C.2         1 MOL       0.0844
      5 OXT        21.7688  -14.7699    6.9915 O.co2       1 MOL      -0.5643
      6 O          19.6948  -14.8268    5.9377 O.co2       1 MOL      -0.5643
      7 CB         22.7292  -16.9630    5.2726 C.3         1 MOL       0.0025
      8 CG         22.3248  -18.1922    6.1664 C.3         1 MOL      -0.0441
      9 CD         22.9771  -18.2559    7.5768 C.3         1 MOL      -0.0202
     10 CE         22.6228  -17.1016    8.5637 C.3         1 MOL       0.1665
     11 O2         20.4225  -17.8097    8.8330 O.2         1 MOL       0.1861
     12 O1         20.9082  -15.8052    9.1491 O.2         1 MOL       0.1861
     13 H1         22.0173  -15.4548    2.9745 H           1 MOL       0.2010
     14 H2         22.8824  -14.6042    4.1549 H           1 MOL       0.2010
     15 H3         21.2594  -14.2672    3.8671 H           1 MOL       0.2010
     16 H4         20.7648  -16.6249    4.4053 H           1 MOL       0.1024
     17 H5         23.5173  -16.3786    5.7626 H           1 MOL       0.0339
     18 H6         23.1591  -17.3525    4.3468 H           1 MOL       0.0339
     19 H7         22.6347  -19.1060    5.6338 H           1 MOL       0.0269
     20 H8         21.2324  -18.2559    6.2708 H           1 MOL       0.0269
     21 H9         24.0645  -18.2892    7.4585 H           1 MOL       0.0290
     22 H10        22.6725  -19.2031    8.0418 H           1 MOL       0.0290
     23 H11        23.0165  -17.3712    9.5500 H           1 MOL       0.0652
     24 H12        23.1492  -16.1977    8.2298 H           1 MOL       0.0652
@<TRIPOS>BOND
     1    10     1   1
     2     1    11   2
     3     1    12   2
     4     3     2   1
     5     3     4   1
     6     7     3   1
     7     4     5  ar
     8     4     6  ar
     9     8     7   1
    10     9     8   1
    11     9    10   1
    12     2    13   1
    13     2    14   1
    14     2    15   1
    15     3    16   1
    16     7    17   1
    17     7    18   1
    18     8    19   1
    19     8    20   1
    20     9    21   1
    21     9    22   1
    22    10    23   1
    23    10    24   1
@<TRIPOS>SUBSTRUCTURE
     1  MOL      3

