@<TRIPOS>MOLECULE
3f80_ligand_006
    24    23
SMALL
GAST_HUCK
****
This file was generated by PARSER (from files_GN.cpp)

@<TRIPOS>ATOM
      1 N1         22.6828  -16.4832    4.2734 N.2         1 MOL       0.2909
      2 N          27.3637  -13.6652    7.8909 N.4         1 MOL       0.2327
      3 CA         26.2108  -13.8574    6.9936 C.3         1 MOL       0.0283
      4 C          25.5661  -12.5412    6.8079 C.2         1 MOL       0.0844
      5 OXT        24.3625  -12.2600    7.3462 O.co2       1 MOL      -0.5643
      6 O          26.2963  -11.4973    6.3578 O.co2       1 MOL      -0.5643
      7 CB         25.2793  -14.9915    7.5314 C.3         1 MOL       0.0025
      8 CG         24.3509  -15.6410    6.4615 C.3         1 MOL      -0.0441
      9 CD         22.9155  -15.0619    6.3162 C.3         1 MOL      -0.0202
     10 CE         22.2635  -15.3124    4.9191 C.3         1 MOL       0.1665
     11 O2         23.2542  -16.4411    3.1362 O.2         1 MOL       0.1861
     12 O1         22.5117  -17.5298    4.7559 O.2         1 MOL       0.1861
     13 H1         27.8685  -14.5427    8.0138 H           1 MOL       0.2010
     14 H2         27.0526  -13.3244    8.8029 H           1 MOL       0.2010
     15 H3         28.0157  -12.9932    7.4779 H           1 MOL       0.2010
     16 H4         26.6155  -14.1688    6.0277 H           1 MOL       0.1024
     17 H5         24.6886  -14.6346    8.3798 H           1 MOL       0.0339
     18 H6         25.9264  -15.7848    7.9151 H           1 MOL       0.0339
     19 H7         24.2403  -16.7030    6.7056 H           1 MOL       0.0269
     20 H8         24.8472  -15.5899    5.4920 H           1 MOL       0.0269
     21 H9         22.9349  -13.9892    6.4915 H           1 MOL       0.0290
     22 H10        22.2787  -15.5045    7.0904 H           1 MOL       0.0290
     23 H11        21.1772  -15.3581    5.0375 H           1 MOL       0.0652
     24 H12        22.4729  -14.4450    4.2843 H           1 MOL       0.0652
@<TRIPOS>BOND
     1    10     1   1
     2     1    11   2
     3     1    12   2
     4     3     2   1
     5     3     4   1
     6     7     3   1
     7     4     5  ar
     8     4     6  ar
     9     8     7   1
    10     9     8   1
    11     9    10   1
    12     2    13   1
    13     2    14   1
    14     2    15   1
    15     3    16   1
    16     7    17   1
    17     7    18   1
    18     8    19   1
    19     8    20   1
    20     9    21   1
    21     9    22   1
    22    10    23   1
    23    10    24   1
@<TRIPOS>SUBSTRUCTURE
     1  MOL      3

