@<TRIPOS>MOLECULE
3f80_ligand_001
    24    23
SMALL
GAST_HUCK
****
This file was generated by PARSER (from files_GN.cpp)

@<TRIPOS>ATOM
      1 N1         22.2401  -15.3741   10.1864 N.2         1 MOL       0.2909
      2 N          19.5663  -18.2397    7.4361 N.4         1 MOL       0.2327
      3 CA         19.8194  -16.8077    7.1991 C.3         1 MOL       0.0283
      4 C          18.5820  -16.1161    6.7671 C.2         1 MOL       0.0844
      5 OXT        18.6215  -14.7879    6.4985 O.co2       1 MOL      -0.5643
      6 O          17.3819  -16.5867    7.1726 O.co2       1 MOL      -0.5643
      7 CB         21.0273  -16.6291    6.2180 C.3         1 MOL       0.0025
      8 CG         22.2382  -15.8895    6.8603 C.3         1 MOL      -0.0441
      9 CD         22.8261  -16.6143    8.1138 C.3         1 MOL      -0.0202
     10 CE         23.2595  -15.6644    9.2723 C.3         1 MOL       0.1665
     11 O2         21.0840  -15.0007    9.8063 O.2         1 MOL       0.1861
     12 O1         22.4933  -15.1951   11.3205 O.2         1 MOL       0.1861
     13 H1         20.4141  -18.6796    7.8215 H           1 MOL       0.2010
     14 H2         19.3218  -18.6916    6.5493 H           1 MOL       0.2010
     15 H3         18.7946  -18.3498    8.1110 H           1 MOL       0.2010
     16 H4         20.0807  -16.3972    8.1801 H           1 MOL       0.1024
     17 H5         20.7251  -16.0606    5.3276 H           1 MOL       0.0339
     18 H6         21.3784  -17.6038    5.8423 H           1 MOL       0.0339
     19 H7         21.9095  -14.8711    7.1073 H           1 MOL       0.0269
     20 H8         23.0279  -15.7838    6.1072 H           1 MOL       0.0269
     21 H9         23.6985  -17.1902    7.7808 H           1 MOL       0.0290
     22 H10        22.1013  -17.3274    8.5198 H           1 MOL       0.0290
     23 H11        24.0867  -16.1670    9.7887 H           1 MOL       0.0652
     24 H12        23.6575  -14.7294    8.8481 H           1 MOL       0.0652
@<TRIPOS>BOND
     1    10     1   1
     2     1    11   2
     3     1    12   2
     4     3     2   1
     5     3     4   1
     6     7     3   1
     7     4     5  ar
     8     4     6  ar
     9     8     7   1
    10     9     8   1
    11     9    10   1
    12     2    13   1
    13     2    14   1
    14     2    15   1
    15     3    16   1
    16     7    17   1
    17     7    18   1
    18     8    19   1
    19     8    20   1
    20     9    21   1
    21     9    22   1
    22    10    23   1
    23    10    24   1
@<TRIPOS>SUBSTRUCTURE
     1  MOL      3

