@<TRIPOS>MOLECULE
3f80_ligand_007
    24    23
SMALL
GAST_HUCK
****
This file was generated by PARSER (from files_GN.cpp)

@<TRIPOS>ATOM
      1 N1         18.5267  -15.7886    6.9321 N.2         1 MOL       0.2909
      2 N          22.4457  -19.3175    4.7634 N.4         1 MOL       0.2327
      3 CA         22.2814  -17.8949    4.4119 C.3         1 MOL       0.0283
      4 C          23.0318  -17.6370    3.1637 C.2         1 MOL       0.0844
      5 OXT        23.6816  -16.4754    2.9465 O.co2       1 MOL      -0.5643
      6 O          22.8798  -18.4499    2.0899 O.co2       1 MOL      -0.5643
      7 CB         22.6909  -16.9962    5.6251 C.3         1 MOL       0.0025
      8 CG         21.9138  -15.6431    5.7619 C.3         1 MOL      -0.0441
      9 CD         21.0152  -15.5473    7.0316 C.3         1 MOL      -0.0202
     10 CE         19.7481  -16.4575    7.0220 C.3         1 MOL       0.1665
     11 O2         17.4595  -16.4038    7.2220 O.2         1 MOL       0.1861
     12 O1         18.3873  -14.8525    6.2447 O.2         1 MOL       0.1861
     13 H1         21.9184  -19.5207    5.6145 H           1 MOL       0.2010
     14 H2         23.4349  -19.5257    4.9107 H           1 MOL       0.2010
     15 H3         22.0885  -19.9008    4.0037 H           1 MOL       0.2010
     16 H4         21.2215  -17.7535    4.1964 H           1 MOL       0.1024
     17 H5         23.7639  -16.7858    5.5635 H           1 MOL       0.0339
     18 H6         22.5607  -17.5683    6.5461 H           1 MOL       0.0339
     19 H7         21.3022  -15.4522    4.8767 H           1 MOL       0.0269
     20 H8         22.6476  -14.8332    5.8166 H           1 MOL       0.0269
     21 H9         20.7144  -14.5052    7.1699 H           1 MOL       0.0290
     22 H10        21.6260  -15.7999    7.9017 H           1 MOL       0.0290
     23 H11        19.8017  -17.1732    6.2004 H           1 MOL       0.0652
     24 H12        19.7388  -17.0317    7.9558 H           1 MOL       0.0652
@<TRIPOS>BOND
     1    10     1   1
     2     1    11   2
     3     1    12   2
     4     3     2   1
     5     3     4   1
     6     7     3   1
     7     4     5  ar
     8     4     6  ar
     9     8     7   1
    10     9     8   1
    11     9    10   1
    12     2    13   1
    13     2    14   1
    14     2    15   1
    15     3    16   1
    16     7    17   1
    17     7    18   1
    18     8    19   1
    19     8    20   1
    20     9    21   1
    21     9    22   1
    22    10    23   1
    23    10    24   1
@<TRIPOS>SUBSTRUCTURE
     1  MOL      3

