@<TRIPOS>MOLECULE
3f80_ligand_003
    24    23
SMALL
GAST_HUCK
****
This file was generated by PARSER (from files_GN.cpp)

@<TRIPOS>ATOM
      1 N1         21.9946  -19.8866    8.3397 N.2         1 MOL       0.2909
      2 N          22.0921  -14.9954    3.8369 N.4         1 MOL       0.2327
      3 CA         21.6670  -16.1038    4.7010 C.3         1 MOL       0.0283
      4 C          21.1400  -15.5566    5.9784 C.2         1 MOL       0.0844
      5 OXT        21.9837  -15.1984    6.9866 O.co2       1 MOL      -0.5643
      6 O          19.9088  -14.9841    5.9758 O.co2       1 MOL      -0.5643
      7 CB         22.7947  -17.1559    4.8880 C.3         1 MOL       0.0025
      8 CG         22.2495  -18.5379    5.3538 C.3         1 MOL      -0.0441
      9 CD         23.2180  -19.3403    6.2677 C.3         1 MOL      -0.0202
     10 CE         22.5184  -20.4141    7.1482 C.3         1 MOL       0.1665
     11 O2         21.0613  -19.0177    8.3274 O.2         1 MOL       0.1861
     12 O1         22.3756  -20.2363    9.3882 O.2         1 MOL       0.1861
     13 H1         22.1547  -15.3613    2.8898 H           1 MOL       0.2010
     14 H2         22.9967  -14.6061    4.1299 H           1 MOL       0.2010
     15 H3         21.3791  -14.2583    3.8562 H           1 MOL       0.2010
     16 H4         20.8380  -16.5937    4.1909 H           1 MOL       0.1024
     17 H5         23.5382  -16.7635    5.5852 H           1 MOL       0.0339
     18 H6         23.3097  -17.2880    3.9330 H           1 MOL       0.0339
     19 H7         22.0146  -19.1394    4.4700 H           1 MOL       0.0269
     20 H8         21.3089  -18.3884    5.8884 H           1 MOL       0.0269
     21 H9         23.7617  -18.6577    6.9266 H           1 MOL       0.0290
     22 H10        23.9536  -19.8386    5.6283 H           1 MOL       0.0290
     23 H11        21.7200  -20.9007    6.5870 H           1 MOL       0.0652
     24 H12        23.2576  -21.1840    7.3816 H           1 MOL       0.0652
@<TRIPOS>BOND
     1    10     1   1
     2     1    11   2
     3     1    12   2
     4     3     2   1
     5     3     4   1
     6     7     3   1
     7     4     5  ar
     8     4     6  ar
     9     8     7   1
    10     9     8   1
    11     9    10   1
    12     2    13   1
    13     2    14   1
    14     2    15   1
    15     3    16   1
    16     7    17   1
    17     7    18   1
    18     8    19   1
    19     8    20   1
    20     9    21   1
    21     9    22   1
    22    10    23   1
    23    10    24   1
@<TRIPOS>SUBSTRUCTURE
     1  MOL      3

