@<TRIPOS>MOLECULE
3fcq_ligand_048
    23    23
SMALL
GAST_HUCK
****
This file was generated by PARSER (from files_GN.cpp)

@<TRIPOS>ATOM
      1 O12        41.8692   39.0148   -2.4125 O.2         1 M3S      -0.3640
      2 C11        42.2664   37.9009   -3.0884 C.2         1 M3S       0.2533
      3 O1         42.0306   36.6494   -2.5947 O.3         1 M3S      -0.2144
      4 C2         41.3220   36.3193   -1.4658 C.ar        1 M3S       0.1394
      5 C7         42.0728   35.8415   -0.3581 C.ar        1 M3S      -0.0078
      6 C1         43.5453   35.6399   -0.4469 C.3         1 M3S      -0.0317
      7 C6         41.4163   35.5881    0.8650 C.ar        1 M3S      -0.0652
      8 C5         40.0355   35.7929    0.9885 C.ar        1 M3S      -0.0752
      9 C4         39.2900   36.2261   -0.1210 C.ar        1 M3S      -0.0620
     10 C3         39.9127   36.4830   -1.3650 C.ar        1 M3S       0.0373
     11 C8         39.1202   36.8257   -2.4836 C.2         1 M3S       0.0573
     12 O10        38.6674   35.8842   -3.3524 O.co2       1 M3S      -0.5642
     13 O9         38.6369   38.0841   -2.6577 O.co2       1 M3S      -0.5642
     14 C13        43.0028   38.0416   -4.3429 C.3         1 M3S       0.0413
     15 H1         43.9771   35.2824    0.4974 H           1 M3S       0.0370
     16 H2         44.0369   36.5815   -0.7010 H           1 M3S       0.0370
     17 H3         43.7737   34.8978   -1.2176 H           1 M3S       0.0370
     18 H4         41.9378   35.2513    1.6769 H           1 M3S       0.0549
     19 H5         39.5738   35.6120    1.8745 H           1 M3S       0.0520
     20 H6         38.2769   36.3206   -0.0147 H           1 M3S       0.0566
     21 H7         43.1733   39.0983   -4.5811 H           1 M3S       0.0485
     22 H8         42.4224   37.5865   -5.1540 H           1 M3S       0.0485
     23 H9         43.9744   37.5383   -4.2716 H           1 M3S       0.0485
@<TRIPOS>BOND
     1     1     2   2
     2     2     3   1
     3     2    14   1
     4     3     4   1
     5     4     5  ar
     6     4    10  ar
     7     5     6   1
     8     5     7  ar
     9     7     8  ar
    10     8     9  ar
    11     9    10  ar
    12    10    11   1
    13    11    12  ar
    14    11    13  ar
    15     6    15   1
    16     6    16   1
    17     6    17   1
    18     7    18   1
    19     8    19   1
    20     9    20   1
    21    14    21   1
    22    14    22   1
    23    14    23   1
@<TRIPOS>SUBSTRUCTURE
     1  M3S      2

