@<TRIPOS>MOLECULE
3fcq_ligand_046
    23    23
SMALL
GAST_HUCK
****
This file was generated by PARSER (from files_GN.cpp)

@<TRIPOS>ATOM
      1 O12        31.8758   38.1883  -11.1532 O.2         1 M3S      -0.3640
      2 C11        32.0309   39.0302  -10.1021 C.2         1 M3S       0.2533
      3 O1         31.1529   39.0297   -9.0641 O.3         1 M3S      -0.2144
      4 C2         30.0348   38.2495   -8.9222 C.ar        1 M3S       0.1394
      5 C7         30.0526   37.2770   -7.8853 C.ar        1 M3S      -0.0078
      6 C1         31.2397   37.1165   -7.0088 C.3         1 M3S      -0.0317
      7 C6         28.9305   36.4364   -7.7083 C.ar        1 M3S      -0.0652
      8 C5         27.8031   36.5734   -8.5278 C.ar        1 M3S      -0.0752
      9 C4         27.7735   37.5673   -9.5194 C.ar        1 M3S      -0.0620
     10 C3         28.8736   38.4338   -9.7381 C.ar        1 M3S       0.0373
     11 C8         28.7448   39.4602  -10.7297 C.2         1 M3S       0.0573
     12 O10        29.7340   40.3323  -11.0258 O.co2       1 M3S      -0.5642
     13 O9         27.5755   39.6780  -11.3794 O.co2       1 M3S      -0.5642
     14 C13        33.1271   40.0058  -10.0999 C.3         1 M3S       0.0413
     15 H1         31.0918   36.3524   -6.2439 H           1 M3S       0.0370
     16 H2         31.4572   38.0616   -6.5072 H           1 M3S       0.0370
     17 H3         32.1024   36.8327   -7.6156 H           1 M3S       0.0370
     18 H4         28.9309   35.7123   -6.9863 H           1 M3S       0.0549
     19 H5         26.9884   35.9731   -8.3738 H           1 M3S       0.0520
     20 H6         26.9096   37.6593  -10.0602 H           1 M3S       0.0566
     21 H7         33.7402   39.9017  -10.9979 H           1 M3S       0.0485
     22 H8         33.7572   39.8569   -9.2211 H           1 M3S       0.0485
     23 H9         32.7152   41.0178  -10.0756 H           1 M3S       0.0485
@<TRIPOS>BOND
     1     1     2   2
     2     2     3   1
     3     2    14   1
     4     3     4   1
     5     4     5  ar
     6     4    10  ar
     7     5     6   1
     8     5     7  ar
     9     7     8  ar
    10     8     9  ar
    11     9    10  ar
    12    10    11   1
    13    11    12  ar
    14    11    13  ar
    15     6    15   1
    16     6    16   1
    17     6    17   1
    18     7    18   1
    19     8    19   1
    20     9    20   1
    21    14    21   1
    22    14    22   1
    23    14    23   1
@<TRIPOS>SUBSTRUCTURE
     1  M3S      2

