@<TRIPOS>MOLECULE
3fcq_ligand_021
    23    23
SMALL
GAST_HUCK
****
This file was generated by PARSER (from files_GN.cpp)

@<TRIPOS>ATOM
      1 O12        32.5739   29.9603   -5.0164 O.2         1 M3S      -0.3640
      2 C11        32.9140   31.1960   -4.5680 C.2         1 M3S       0.2533
      3 O1         33.8473   31.3554   -3.5898 O.3         1 M3S      -0.2144
      4 C2         34.5983   30.3766   -2.9898 C.ar        1 M3S       0.1394
      5 C7         35.5501   29.6327   -3.7360 C.ar        1 M3S      -0.0078
      6 C1         35.8280   29.9471   -5.1596 C.3         1 M3S      -0.0317
      7 C6         36.3112   28.6323   -3.0821 C.ar        1 M3S      -0.0652
      8 C5         36.1549   28.4073   -1.7095 C.ar        1 M3S      -0.0752
      9 C4         35.2711   29.1917   -0.9647 C.ar        1 M3S      -0.0620
     10 C3         34.4815   30.1946   -1.5851 C.ar        1 M3S       0.0373
     11 C8         33.6225   30.9936   -0.7805 C.2         1 M3S       0.0573
     12 O10        33.7727   31.0655    0.5646 O.co2       1 M3S      -0.5642
     13 O9         32.5943   31.7185   -1.2789 O.co2       1 M3S      -0.5642
     14 C13        32.2546   32.3802   -5.1246 C.3         1 M3S       0.0413
     15 H1         36.7009   29.4164   -5.5413 H           1 M3S       0.0370
     16 H2         36.0265   31.0159   -5.2571 H           1 M3S       0.0370
     17 H3         34.9680   29.6845   -5.7746 H           1 M3S       0.0370
     18 H4         37.0001   28.0825   -3.5989 H           1 M3S       0.0549
     19 H5         36.7256   27.6922   -1.2437 H           1 M3S       0.0520
     20 H6         35.2134   29.0284    0.0412 H           1 M3S       0.0566
     21 H7         31.5839   32.1098   -5.9403 H           1 M3S       0.0485
     22 H8         33.0121   33.0628   -5.5055 H           1 M3S       0.0485
     23 H9         31.6787   32.8799   -4.3479 H           1 M3S       0.0485
@<TRIPOS>BOND
     1     1     2   2
     2     2     3   1
     3     2    14   1
     4     3     4   1
     5     4     5  ar
     6     4    10  ar
     7     5     6   1
     8     5     7  ar
     9     7     8  ar
    10     8     9  ar
    11     9    10  ar
    12    10    11   1
    13    11    12  ar
    14    11    13  ar
    15     6    15   1
    16     6    16   1
    17     6    17   1
    18     7    18   1
    19     8    19   1
    20     9    20   1
    21    14    21   1
    22    14    22   1
    23    14    23   1
@<TRIPOS>SUBSTRUCTURE
     1  M3S      2

