@<TRIPOS>MOLECULE
3fcq_ligand_034
    23    23
SMALL
GAST_HUCK
****
This file was generated by PARSER (from files_GN.cpp)

@<TRIPOS>ATOM
      1 O12        42.8727   39.4425   -4.3005 O.2         1 M3S      -0.3640
      2 C11        43.0906   38.3885   -3.4871 C.2         1 M3S       0.2533
      3 O1         42.9485   37.1100   -3.9202 O.3         1 M3S      -0.2144
      4 C2         42.4710   36.6152   -5.1073 C.ar        1 M3S       0.1394
      5 C7         41.2173   37.0363   -5.6501 C.ar        1 M3S      -0.0078
      6 C1         40.3478   38.0294   -4.9753 C.3         1 M3S      -0.0317
      7 C6         40.7491   36.4233   -6.8384 C.ar        1 M3S      -0.0652
      8 C5         41.4726   35.3919   -7.4540 C.ar        1 M3S      -0.0752
      9 C4         42.6730   34.9486   -6.8868 C.ar        1 M3S      -0.0620
     10 C3         43.1942   35.5484   -5.7162 C.ar        1 M3S       0.0373
     11 C8         44.4304   35.0616   -5.1917 C.2         1 M3S       0.0573
     12 O10        44.7001   33.7291   -5.1511 O.co2       1 M3S      -0.5642
     13 O9         45.4241   35.8925   -4.7933 O.co2       1 M3S      -0.5642
     14 C13        43.6217   38.6132   -2.1407 C.3         1 M3S       0.0413
     15 H1         39.3624   38.1108   -5.4493 H           1 M3S       0.0370
     16 H2         40.8098   39.0194   -5.0060 H           1 M3S       0.0370
     17 H3         40.1920   37.7347   -3.9293 H           1 M3S       0.0370
     18 H4         39.8573   36.7026   -7.2547 H           1 M3S       0.0549
     19 H5         41.1156   34.9537   -8.3023 H           1 M3S       0.0520
     20 H6         43.1748   34.1847   -7.3554 H           1 M3S       0.0566
     21 H7         43.6611   39.6826   -1.9107 H           1 M3S       0.0485
     22 H8         44.6295   38.1971   -2.0690 H           1 M3S       0.0485
     23 H9         42.9783   38.1213   -1.4093 H           1 M3S       0.0485
@<TRIPOS>BOND
     1     1     2   2
     2     2     3   1
     3     2    14   1
     4     3     4   1
     5     4     5  ar
     6     4    10  ar
     7     5     6   1
     8     5     7  ar
     9     7     8  ar
    10     8     9  ar
    11     9    10  ar
    12    10    11   1
    13    11    12  ar
    14    11    13  ar
    15     6    15   1
    16     6    16   1
    17     6    17   1
    18     7    18   1
    19     8    19   1
    20     9    20   1
    21    14    21   1
    22    14    22   1
    23    14    23   1
@<TRIPOS>SUBSTRUCTURE
     1  M3S      2

