@<TRIPOS>MOLECULE
3fcq_ligand_041
    23    23
SMALL
GAST_HUCK
****
This file was generated by PARSER (from files_GN.cpp)

@<TRIPOS>ATOM
      1 O12        30.9117   44.1419  -11.8936 O.2         1 M3S      -0.3640
      2 C11        32.1289   44.6513  -12.2095 C.2         1 M3S       0.2533
      3 O1         33.1546   43.8577  -12.6175 O.3         1 M3S      -0.2144
      4 C2         33.1093   42.4956  -12.7514 C.ar        1 M3S       0.1394
      5 C7         32.8197   41.9595  -14.0333 C.ar        1 M3S      -0.0078
      6 C1         32.5901   42.8509  -15.1997 C.3         1 M3S      -0.0317
      7 C6         32.7395   40.5580  -14.1875 C.ar        1 M3S      -0.0652
      8 C5         32.9292   39.7047  -13.0889 C.ar        1 M3S      -0.0752
      9 C4         33.2183   40.2422  -11.8252 C.ar        1 M3S      -0.0620
     10 C3         33.3387   41.6417  -11.6374 C.ar        1 M3S       0.0373
     11 C8         33.6833   42.1438  -10.3531 C.2         1 M3S       0.0573
     12 O10        34.2824   43.3464  -10.1840 O.co2       1 M3S      -0.5642
     13 O9         33.4948   41.4149   -9.2288 O.co2       1 M3S      -0.5642
     14 C13        32.3447   46.1005  -12.1556 C.3         1 M3S       0.0413
     15 H1         32.4048   42.2945  -16.1206 H           1 M3S       0.0370
     16 H2         33.4618   43.4894  -15.3616 H           1 M3S       0.0370
     17 H3         31.7218   43.4840  -15.0074 H           1 M3S       0.0370
     18 H4         32.5269   40.1432  -15.0987 H           1 M3S       0.0549
     19 H5         32.8701   38.6906  -13.2131 H           1 M3S       0.0520
     20 H6         33.3645   39.5903  -11.0482 H           1 M3S       0.0566
     21 H7         31.4454   46.6252  -11.8320 H           1 M3S       0.0485
     22 H8         32.6265   46.4614  -13.1432 H           1 M3S       0.0485
     23 H9         33.1510   46.3183  -11.4600 H           1 M3S       0.0485
@<TRIPOS>BOND
     1     1     2   2
     2     2     3   1
     3     2    14   1
     4     3     4   1
     5     4     5  ar
     6     4    10  ar
     7     5     6   1
     8     5     7  ar
     9     7     8  ar
    10     8     9  ar
    11     9    10  ar
    12    10    11   1
    13    11    12  ar
    14    11    13  ar
    15     6    15   1
    16     6    16   1
    17     6    17   1
    18     7    18   1
    19     8    19   1
    20     9    20   1
    21    14    21   1
    22    14    22   1
    23    14    23   1
@<TRIPOS>SUBSTRUCTURE
     1  M3S      2

