@<TRIPOS>MOLECULE
3fcq_ligand_016
    23    23
SMALL
GAST_HUCK
****
This file was generated by PARSER (from files_GN.cpp)

@<TRIPOS>ATOM
      1 O12        37.7824   43.2366   -2.4104 O.2         1 M3S      -0.3640
      2 C11        36.7700   43.6127   -1.6088 C.2         1 M3S       0.2533
      3 O1         35.9344   42.7023   -1.0610 O.3         1 M3S      -0.2144
      4 C2         35.9426   41.3360   -1.2328 C.ar        1 M3S       0.1394
      5 C7         35.6120   40.7225   -2.4721 C.ar        1 M3S      -0.0078
      6 C1         35.2037   41.5262   -3.6467 C.3         1 M3S      -0.0317
      7 C6         35.5770   39.3205   -2.5633 C.ar        1 M3S      -0.0652
      8 C5         35.8113   38.5187   -1.4440 C.ar        1 M3S      -0.0752
      9 C4         36.0567   39.1278   -0.2064 C.ar        1 M3S      -0.0620
     10 C3         36.1552   40.5235   -0.0857 C.ar        1 M3S       0.0373
     11 C8         36.4569   41.0933    1.1661 C.2         1 M3S       0.0573
     12 O10        35.4633   41.5743    1.9711 O.co2       1 M3S      -0.5642
     13 O9         37.7479   41.2398    1.5872 O.co2       1 M3S      -0.5642
     14 C13        36.6071   45.0275   -1.2444 C.3         1 M3S       0.0413
     15 H1         34.8720   40.9104   -4.4889 H           1 M3S       0.0370
     16 H2         36.0347   42.1648   -3.9809 H           1 M3S       0.0370
     17 H3         34.3522   42.1601   -3.3677 H           1 M3S       0.0370
     18 H4         35.3582   38.8570   -3.4449 H           1 M3S       0.0549
     19 H5         35.7670   37.5072   -1.5121 H           1 M3S       0.0520
     20 H6         36.2029   38.5290    0.6194 H           1 M3S       0.0566
     21 H7         37.3184   45.6564   -1.7842 H           1 M3S       0.0485
     22 H8         36.7686   45.1609   -0.1745 H           1 M3S       0.0485
     23 H9         35.5975   45.3531   -1.5008 H           1 M3S       0.0485
@<TRIPOS>BOND
     1     1     2   2
     2     2     3   1
     3     2    14   1
     4     3     4   1
     5     4     5  ar
     6     4    10  ar
     7     5     6   1
     8     5     7  ar
     9     7     8  ar
    10     8     9  ar
    11     9    10  ar
    12    10    11   1
    13    11    12  ar
    14    11    13  ar
    15     6    15   1
    16     6    16   1
    17     6    17   1
    18     7    18   1
    19     8    19   1
    20     9    20   1
    21    14    21   1
    22    14    22   1
    23    14    23   1
@<TRIPOS>SUBSTRUCTURE
     1  M3S      2

