@<TRIPOS>MOLECULE
3fcq_ligand_038
    23    23
SMALL
GAST_HUCK
****
This file was generated by PARSER (from files_GN.cpp)

@<TRIPOS>ATOM
      1 O12        28.9878   35.9938  -10.0195 O.2         1 M3S      -0.3640
      2 C11        29.0946   36.8237   -8.9445 C.2         1 M3S       0.2533
      3 O1         28.7998   38.1528   -9.0580 O.3         1 M3S      -0.2144
      4 C2         28.3036   38.8395  -10.1357 C.ar        1 M3S       0.1394
      5 C7         29.0518   39.9605  -10.5787 C.ar        1 M3S      -0.0078
      6 C1         30.3198   40.3469   -9.9040 C.3         1 M3S      -0.0317
      7 C6         28.6171   40.6815  -11.7090 C.ar        1 M3S      -0.0652
      8 C5         27.4545   40.3068  -12.3949 C.ar        1 M3S      -0.0752
      9 C4         26.7101   39.1991  -11.9543 C.ar        1 M3S      -0.0620
     10 C3         27.1157   38.4530  -10.8191 C.ar        1 M3S       0.0373
     11 C8         26.2813   37.4174  -10.3546 C.2         1 M3S       0.0573
     12 O10        26.0056   37.2989   -9.0345 O.co2       1 M3S      -0.5642
     13 O9         25.6091   36.5879  -11.2038 O.co2       1 M3S      -0.5642
     14 C13        29.5686   36.2932   -7.6622 C.3         1 M3S       0.0413
     15 H1         30.7835   41.2283  -10.3676 H           1 M3S       0.0370
     16 H2         31.0293   39.5243   -9.9704 H           1 M3S       0.0370
     17 H3         30.1314   40.5829   -8.8576 H           1 M3S       0.0370
     18 H4         29.1523   41.4810  -12.0529 H           1 M3S       0.0549
     19 H5         27.1442   40.8454  -13.1995 H           1 M3S       0.0520
     20 H6         25.8420   38.9664  -12.4545 H           1 M3S       0.0566
     21 H7         29.8421   35.2377   -7.7720 H           1 M3S       0.0485
     22 H8         28.7718   36.3701   -6.9289 H           1 M3S       0.0485
     23 H9         30.4369   36.8441   -7.3161 H           1 M3S       0.0485
@<TRIPOS>BOND
     1     1     2   2
     2     2     3   1
     3     2    14   1
     4     3     4   1
     5     4     5  ar
     6     4    10  ar
     7     5     6   1
     8     5     7  ar
     9     7     8  ar
    10     8     9  ar
    11     9    10  ar
    12    10    11   1
    13    11    12  ar
    14    11    13  ar
    15     6    15   1
    16     6    16   1
    17     6    17   1
    18     7    18   1
    19     8    19   1
    20     9    20   1
    21    14    21   1
    22    14    22   1
    23    14    23   1
@<TRIPOS>SUBSTRUCTURE
     1  M3S      2

