@<TRIPOS>MOLECULE
3fcq_ligand_001
    23    23
SMALL
GAST_HUCK
****
This file was generated by PARSER (from files_GN.cpp)

@<TRIPOS>ATOM
      1 O12        35.1603   39.1452   -2.1168 O.2         1 M3S      -0.3640
      2 C11        36.0624   39.8931   -1.4368 C.2         1 M3S       0.2533
      3 O1         37.3983   39.7011   -1.5811 O.3         1 M3S      -0.2144
      4 C2         37.9983   38.8159   -2.4435 C.ar        1 M3S       0.1394
      5 C7         38.4026   37.5432   -1.9663 C.ar        1 M3S      -0.0078
      6 C1         38.1670   37.1671   -0.5482 C.3         1 M3S      -0.0317
      7 C6         39.0166   36.6364   -2.8576 C.ar        1 M3S      -0.0652
      8 C5         39.2288   36.9838   -4.1979 C.ar        1 M3S      -0.0752
      9 C4         38.8351   38.2472   -4.6674 C.ar        1 M3S      -0.0620
     10 C3         38.2232   39.1757   -3.7979 C.ar        1 M3S       0.0373
     11 C8         37.8749   40.4425   -4.2852 C.2         1 M3S       0.0573
     12 O10        36.6290   40.6285   -4.7722 O.co2       1 M3S      -0.5642
     13 O9         38.5588   41.5316   -3.8519 O.co2       1 M3S      -0.5642
     14 C13        35.6004   40.9123   -0.4912 C.3         1 M3S       0.0413
     15 H1         38.5446   36.1681   -0.3141 H           1 M3S       0.0370
     16 H2         37.0951   37.1823   -0.3380 H           1 M3S       0.0370
     17 H3         38.6692   37.8835    0.1058 H           1 M3S       0.0370
     18 H4         39.3064   35.7049   -2.5422 H           1 M3S       0.0549
     19 H5         39.6726   36.3271   -4.8403 H           1 M3S       0.0520
     20 H6         39.0110   38.4962   -5.6436 H           1 M3S       0.0566
     21 H7         34.5095   40.9397   -0.4468 H           1 M3S       0.0485
     22 H8         35.9629   41.8909   -0.8061 H           1 M3S       0.0485
     23 H9         35.9901   40.6919    0.5024 H           1 M3S       0.0485
@<TRIPOS>BOND
     1     1     2   2
     2     2     3   1
     3     2    14   1
     4     3     4   1
     5     4     5  ar
     6     4    10  ar
     7     5     6   1
     8     5     7  ar
     9     7     8  ar
    10     8     9  ar
    11     9    10  ar
    12    10    11   1
    13    11    12  ar
    14    11    13  ar
    15     6    15   1
    16     6    16   1
    17     6    17   1
    18     7    18   1
    19     8    19   1
    20     9    20   1
    21    14    21   1
    22    14    22   1
    23    14    23   1
@<TRIPOS>SUBSTRUCTURE
     1  M3S      2

