@<TRIPOS>MOLECULE
3fcq_ligand_002
    23    23
SMALL
GAST_HUCK
****
This file was generated by PARSER (from files_GN.cpp)

@<TRIPOS>ATOM
      1 O12        34.4391   39.2096   -3.5395 O.2         1 M3S      -0.3640
      2 C11        35.2475   40.2749   -3.7009 C.2         1 M3S       0.2533
      3 O1         35.8644   40.5286   -4.8831 O.3         1 M3S      -0.2144
      4 C2         35.8111   39.7548   -6.0131 C.ar        1 M3S       0.1394
      5 C7         36.5194   38.5203   -6.0807 C.ar        1 M3S      -0.0078
      6 C1         37.4257   38.0848   -4.9953 C.3         1 M3S      -0.0317
      7 C6         36.3657   37.7148   -7.2303 C.ar        1 M3S      -0.0652
      8 C5         35.5298   38.1108   -8.2859 C.ar        1 M3S      -0.0752
      9 C4         34.8678   39.3404   -8.2243 C.ar        1 M3S      -0.0620
     10 C3         35.0174   40.1926   -7.1043 C.ar        1 M3S       0.0373
     11 C8         34.3773   41.4517   -7.0886 C.2         1 M3S       0.0573
     12 O10        33.1067   41.5924   -7.5527 O.co2       1 M3S      -0.5642
     13 O9         35.0894   42.5814   -6.8309 O.co2       1 M3S      -0.5642
     14 C13        35.4344   41.2124   -2.5912 C.3         1 M3S       0.0413
     15 H1         38.0076   37.1981   -5.2658 H           1 M3S       0.0370
     16 H2         36.8388   37.8370   -4.1088 H           1 M3S       0.0370
     17 H3         38.1298   38.8831   -4.7552 H           1 M3S       0.0370
     18 H4         36.8618   36.8174   -7.2995 H           1 M3S       0.0549
     19 H5         35.4304   37.5052   -9.1012 H           1 M3S       0.0520
     20 H6         34.2724   39.6169   -9.0147 H           1 M3S       0.0566
     21 H7         34.8512   40.8971   -1.7198 H           1 M3S       0.0485
     22 H8         35.1155   42.2198   -2.8798 H           1 M3S       0.0485
     23 H9         36.4927   41.2419   -2.3117 H           1 M3S       0.0485
@<TRIPOS>BOND
     1     1     2   2
     2     2     3   1
     3     2    14   1
     4     3     4   1
     5     4     5  ar
     6     4    10  ar
     7     5     6   1
     8     5     7  ar
     9     7     8  ar
    10     8     9  ar
    11     9    10  ar
    12    10    11   1
    13    11    12  ar
    14    11    13  ar
    15     6    15   1
    16     6    16   1
    17     6    17   1
    18     7    18   1
    19     8    19   1
    20     9    20   1
    21    14    21   1
    22    14    22   1
    23    14    23   1
@<TRIPOS>SUBSTRUCTURE
     1  M3S      2

