@<TRIPOS>MOLECULE
3fcq_ligand_042
    23    23
SMALL
GAST_HUCK
****
This file was generated by PARSER (from files_GN.cpp)

@<TRIPOS>ATOM
      1 O12        37.6606   33.1461   -2.5572 O.2         1 M3S      -0.3640
      2 C11        36.7925   32.6010   -3.4425 C.2         1 M3S       0.2533
      3 O1         36.3227   31.3347   -3.2923 O.3         1 M3S      -0.2144
      4 C2         36.6630   30.4558   -2.3004 C.ar        1 M3S       0.1394
      5 C7         37.8477   29.6797   -2.4419 C.ar        1 M3S      -0.0078
      6 C1         38.7298   29.8354   -3.6277 C.3         1 M3S      -0.0317
      7 C6         38.1743   28.7469   -1.4329 C.ar        1 M3S      -0.0652
      8 C5         37.3620   28.6047   -0.2981 C.ar        1 M3S      -0.0752
      9 C4         36.2053   29.3838   -0.1581 C.ar        1 M3S      -0.0620
     10 C3         35.8215   30.3129   -1.1561 C.ar        1 M3S       0.0373
     11 C8         34.6318   31.0772   -0.9779 C.2         1 M3S       0.0573
     12 O10        34.0287   31.2004    0.2295 O.co2       1 M3S      -0.5642
     13 O9         34.0371   31.7447   -1.9873 O.co2       1 M3S      -0.5642
     14 C13        36.3014   33.3976   -4.5713 C.3         1 M3S       0.0413
     15 H1         39.5643   29.1343   -3.6187 H           1 M3S       0.0370
     16 H2         39.1437   30.8426   -3.6498 H           1 M3S       0.0370
     17 H3         38.1581   29.6678   -4.5404 H           1 M3S       0.0370
     18 H4         39.0144   28.1690   -1.5131 H           1 M3S       0.0549
     19 H5         37.6125   27.9243    0.4235 H           1 M3S       0.0520
     20 H6         35.6417   29.2564    0.6836 H           1 M3S       0.0566
     21 H7         36.7255   34.4034   -4.5538 H           1 M3S       0.0485
     22 H8         35.2126   33.4699   -4.5107 H           1 M3S       0.0485
     23 H9         36.5784   32.9106   -5.5088 H           1 M3S       0.0485
@<TRIPOS>BOND
     1     1     2   2
     2     2     3   1
     3     2    14   1
     4     3     4   1
     5     4     5  ar
     6     4    10  ar
     7     5     6   1
     8     5     7  ar
     9     7     8  ar
    10     8     9  ar
    11     9    10  ar
    12    10    11   1
    13    11    12  ar
    14    11    13  ar
    15     6    15   1
    16     6    16   1
    17     6    17   1
    18     7    18   1
    19     8    19   1
    20     9    20   1
    21    14    21   1
    22    14    22   1
    23    14    23   1
@<TRIPOS>SUBSTRUCTURE
     1  M3S      2

