@<TRIPOS>MOLECULE
3fcq_ligand_043
    23    23
SMALL
GAST_HUCK
****
This file was generated by PARSER (from files_GN.cpp)

@<TRIPOS>ATOM
      1 O12        40.0429   35.4292   -4.9669 O.2         1 M3S      -0.3640
      2 C11        40.3676   36.0103   -6.1512 C.2         1 M3S       0.2533
      3 O1         41.2988   37.0011   -6.2248 O.3         1 M3S      -0.2144
      4 C2         41.9874   37.6017   -5.2040 C.ar        1 M3S       0.1394
      5 C7         43.4038   37.6388   -5.3028 C.ar        1 M3S      -0.0078
      6 C1         44.0926   37.0774   -6.4923 C.3         1 M3S      -0.0317
      7 C6         44.1524   38.2149   -4.2566 C.ar        1 M3S      -0.0652
      8 C5         43.5159   38.7296   -3.1197 C.ar        1 M3S      -0.0752
      9 C4         42.1163   38.7005   -3.0257 C.ar        1 M3S      -0.0620
     10 C3         41.3269   38.1504   -4.0659 C.ar        1 M3S       0.0373
     11 C8         39.9151   38.2279   -3.9640 C.2         1 M3S       0.0573
     12 O10        39.1196   38.2796   -5.0544 O.co2       1 M3S      -0.5642
     13 O9         39.2952   38.3151   -2.7598 O.co2       1 M3S      -0.5642
     14 C13        39.7343   35.5418   -7.3883 C.3         1 M3S       0.0413
     15 H1         45.1768   37.2323   -6.4527 H           1 M3S       0.0370
     16 H2         43.7134   37.5628   -7.3958 H           1 M3S       0.0370
     17 H3         43.8970   36.0062   -6.5584 H           1 M3S       0.0370
     18 H4         45.1735   38.2462   -4.3026 H           1 M3S       0.0549
     19 H5         44.0729   39.1423   -2.3628 H           1 M3S       0.0520
     20 H6         41.6822   39.1120   -2.1951 H           1 M3S       0.0566
     21 H7         39.0555   34.7053   -7.1856 H           1 M3S       0.0485
     22 H8         40.5072   35.2088   -8.0901 H           1 M3S       0.0485
     23 H9         39.1656   36.3617   -7.8413 H           1 M3S       0.0485
@<TRIPOS>BOND
     1     1     2   2
     2     2     3   1
     3     2    14   1
     4     3     4   1
     5     4     5  ar
     6     4    10  ar
     7     5     6   1
     8     5     7  ar
     9     7     8  ar
    10     8     9  ar
    11     9    10  ar
    12    10    11   1
    13    11    12  ar
    14    11    13  ar
    15     6    15   1
    16     6    16   1
    17     6    17   1
    18     7    18   1
    19     8    19   1
    20     9    20   1
    21    14    21   1
    22    14    22   1
    23    14    23   1
@<TRIPOS>SUBSTRUCTURE
     1  M3S      2

