@<TRIPOS>MOLECULE
3fcq_ligand_033
    23    23
SMALL
GAST_HUCK
****
This file was generated by PARSER (from files_GN.cpp)

@<TRIPOS>ATOM
      1 O12        38.0848   36.0813   -4.6516 O.2         1 M3S      -0.3640
      2 C11        38.0826   37.3246   -5.1954 C.2         1 M3S       0.2533
      3 O1         39.1814   37.8020   -5.8424 O.3         1 M3S      -0.2144
      4 C2         40.3463   37.1327   -6.0819 C.ar        1 M3S       0.1394
      5 C7         40.3647   36.0754   -7.0374 C.ar        1 M3S      -0.0078
      6 C1         39.1585   35.7138   -7.8235 C.3         1 M3S      -0.0317
      7 C6         41.5810   35.4095   -7.2940 C.ar        1 M3S      -0.0652
      8 C5         42.7636   35.7964   -6.6469 C.ar        1 M3S      -0.0752
      9 C4         42.7470   36.8668   -5.7430 C.ar        1 M3S      -0.0620
     10 C3         41.5523   37.5562   -5.4466 C.ar        1 M3S       0.0373
     11 C8         41.5913   38.6795   -4.5675 C.2         1 M3S       0.0573
     12 O10        40.4803   39.1982   -3.9970 O.co2       1 M3S      -0.5642
     13 O9         42.7535   39.3000   -4.2742 O.co2       1 M3S      -0.5642
     14 C13        36.9051   38.1827   -5.0498 C.3         1 M3S       0.0413
     15 H1         39.3746   34.9545   -8.5850 H           1 M3S       0.0370
     16 H2         38.7762   36.6023   -8.3325 H           1 M3S       0.0370
     17 H3         38.3780   35.3116   -7.1782 H           1 M3S       0.0370
     18 H4         41.6276   34.6538   -7.9811 H           1 M3S       0.0549
     19 H5         43.6423   35.3236   -6.8696 H           1 M3S       0.0520
     20 H6         43.6378   37.1524   -5.3209 H           1 M3S       0.0566
     21 H7         36.1006   37.6489   -4.5368 H           1 M3S       0.0485
     22 H8         36.5639   38.4791   -6.0425 H           1 M3S       0.0485
     23 H9         37.1570   39.0776   -4.4751 H           1 M3S       0.0485
@<TRIPOS>BOND
     1     1     2   2
     2     2     3   1
     3     2    14   1
     4     3     4   1
     5     4     5  ar
     6     4    10  ar
     7     5     6   1
     8     5     7  ar
     9     7     8  ar
    10     8     9  ar
    11     9    10  ar
    12    10    11   1
    13    11    12  ar
    14    11    13  ar
    15     6    15   1
    16     6    16   1
    17     6    17   1
    18     7    18   1
    19     8    19   1
    20     9    20   1
    21    14    21   1
    22    14    22   1
    23    14    23   1
@<TRIPOS>SUBSTRUCTURE
     1  M3S      2

