@<TRIPOS>MOLECULE
3fcq_ligand_037
    23    23
SMALL
GAST_HUCK
****
This file was generated by PARSER (from files_GN.cpp)

@<TRIPOS>ATOM
      1 O12        30.7218   43.5682  -14.3400 O.2         1 M3S      -0.3640
      2 C11        29.8306   43.8477  -13.3592 C.2         1 M3S       0.2533
      3 O1         30.1834   43.8173  -12.0476 O.3         1 M3S      -0.2144
      4 C2         31.4310   43.5629  -11.5317 C.ar        1 M3S       0.1394
      5 C7         32.4655   44.5288  -11.6608 C.ar        1 M3S      -0.0078
      6 C1         32.2248   45.8371  -12.3184 C.3         1 M3S      -0.0317
      7 C6         33.7335   44.2522  -11.1021 C.ar        1 M3S      -0.0652
      8 C5         33.9514   43.0897  -10.3463 C.ar        1 M3S      -0.0752
      9 C4         32.9098   42.1638  -10.1789 C.ar        1 M3S      -0.0620
     10 C3         31.6477   42.3716  -10.7804 C.ar        1 M3S       0.0373
     11 C8         30.6435   41.3756  -10.6401 C.2         1 M3S       0.0573
     12 O10        30.6925   40.4436   -9.6530 O.co2       1 M3S      -0.5642
     13 O9         29.6243   41.2488  -11.5269 O.co2       1 M3S      -0.5642
     14 C13        28.4260   44.1066  -13.7064 C.3         1 M3S       0.0413
     15 H1         33.0742   46.5194  -12.2017 H           1 M3S       0.0370
     16 H2         31.3452   46.3182  -11.8684 H           1 M3S       0.0370
     17 H3         32.0501   45.6903  -13.3841 H           1 M3S       0.0370
     18 H4         34.5117   44.9086  -11.2233 H           1 M3S       0.0549
     19 H5         34.8623   42.9262   -9.9121 H           1 M3S       0.0520
     20 H6         33.1045   41.3193   -9.6307 H           1 M3S       0.0566
     21 H7         28.2903   44.1181  -14.7898 H           1 M3S       0.0485
     22 H8         28.1207   45.0754  -13.3044 H           1 M3S       0.0485
     23 H9         27.8005   43.3258  -13.2833 H           1 M3S       0.0485
@<TRIPOS>BOND
     1     1     2   2
     2     2     3   1
     3     2    14   1
     4     3     4   1
     5     4     5  ar
     6     4    10  ar
     7     5     6   1
     8     5     7  ar
     9     7     8  ar
    10     8     9  ar
    11     9    10  ar
    12    10    11   1
    13    11    12  ar
    14    11    13  ar
    15     6    15   1
    16     6    16   1
    17     6    17   1
    18     7    18   1
    19     8    19   1
    20     9    20   1
    21    14    21   1
    22    14    22   1
    23    14    23   1
@<TRIPOS>SUBSTRUCTURE
     1  M3S      2

