@<TRIPOS>MOLECULE
3fcq_ligand_007
    23    23
SMALL
GAST_HUCK
****
This file was generated by PARSER (from files_GN.cpp)

@<TRIPOS>ATOM
      1 O12        31.9923   43.0264   -8.6363 O.2         1 M3S      -0.3640
      2 C11        32.9317   42.6822   -9.5478 C.2         1 M3S       0.2533
      3 O1         32.6038   42.4390  -10.8440 O.3         1 M3S      -0.2144
      4 C2         31.3546   42.4948  -11.4084 C.ar        1 M3S       0.1394
      5 C7         30.7241   43.7468  -11.6369 C.ar        1 M3S      -0.0078
      6 C1         31.3861   45.0177  -11.2571 C.3         1 M3S      -0.0317
      7 C6         29.4456   43.7692  -12.2392 C.ar        1 M3S      -0.0652
      8 C5         28.7855   42.5759  -12.5766 C.ar        1 M3S      -0.0752
      9 C4         29.4113   41.3408  -12.3361 C.ar        1 M3S      -0.0620
     10 C3         30.7099   41.2814  -11.7768 C.ar        1 M3S       0.0373
     11 C8         31.3297   40.0204  -11.5914 C.2         1 M3S       0.0573
     12 O10        32.6562   39.8450  -11.8234 O.co2       1 M3S      -0.5642
     13 O9         30.6074   38.9083  -11.3102 O.co2       1 M3S      -0.5642
     14 C13        34.3254   42.4993   -9.1311 C.3         1 M3S       0.0413
     15 H1         30.7951   45.8970  -11.5320 H           1 M3S       0.0370
     16 H2         32.3541   45.0948  -11.7654 H           1 M3S       0.0370
     17 H3         31.5466   45.0361  -10.1756 H           1 M3S       0.0370
     18 H4         28.9714   44.6566  -12.4321 H           1 M3S       0.0549
     19 H5         27.8589   42.6043  -13.0063 H           1 M3S       0.0520
     20 H6         28.9135   40.4847  -12.6031 H           1 M3S       0.0566
     21 H7         34.4462   42.7244   -8.0680 H           1 M3S       0.0485
     22 H8         34.9762   43.1607   -9.7045 H           1 M3S       0.0485
     23 H9         34.6178   41.4650   -9.3091 H           1 M3S       0.0485
@<TRIPOS>BOND
     1     1     2   2
     2     2     3   1
     3     2    14   1
     4     3     4   1
     5     4     5  ar
     6     4    10  ar
     7     5     6   1
     8     5     7  ar
     9     7     8  ar
    10     8     9  ar
    11     9    10  ar
    12    10    11   1
    13    11    12  ar
    14    11    13  ar
    15     6    15   1
    16     6    16   1
    17     6    17   1
    18     7    18   1
    19     8    19   1
    20     9    20   1
    21    14    21   1
    22    14    22   1
    23    14    23   1
@<TRIPOS>SUBSTRUCTURE
     1  M3S      2

