@<TRIPOS>MOLECULE
3fcq_ligand_026
    23    23
SMALL
GAST_HUCK
****
This file was generated by PARSER (from files_GN.cpp)

@<TRIPOS>ATOM
      1 O12        36.6539   41.1616   -2.6566 O.2         1 M3S      -0.3640
      2 C11        35.4676   40.7369   -2.1548 C.2         1 M3S       0.2533
      3 O1         35.0628   39.4437   -2.3009 O.3         1 M3S      -0.2144
      4 C2         35.7756   38.4256   -2.8811 C.ar        1 M3S       0.1394
      5 C7         36.7627   37.7308   -2.1288 C.ar        1 M3S      -0.0078
      6 C1         37.0085   38.0549   -0.6995 C.3         1 M3S      -0.0317
      7 C6         37.4968   36.7003   -2.7533 C.ar        1 M3S      -0.0652
      8 C5         37.2638   36.3685   -4.0993 C.ar        1 M3S      -0.0752
      9 C4         36.2644   37.0351   -4.8264 C.ar        1 M3S      -0.0620
     10 C3         35.4933   38.0460   -4.2149 C.ar        1 M3S       0.0373
     11 C8         34.4464   38.6543   -4.9206 C.2         1 M3S       0.0573
     12 O10        34.7193   39.4548   -5.9736 O.co2       1 M3S      -0.5642
     13 O9         33.1913   38.1730   -4.7787 O.co2       1 M3S      -0.5642
     14 C13        34.6055   41.6724   -1.4226 C.3         1 M3S       0.0413
     15 H1         37.7753   37.4186   -0.2554 H           1 M3S       0.0370
     16 H2         36.0894   37.9232   -0.1260 H           1 M3S       0.0370
     17 H3         37.3415   39.0878   -0.6036 H           1 M3S       0.0370
     18 H4         38.2035   36.1764   -2.2358 H           1 M3S       0.0549
     19 H5         37.8154   35.6297   -4.5436 H           1 M3S       0.0520
     20 H6         36.0965   36.7690   -5.8008 H           1 M3S       0.0566
     21 H7         35.0405   42.6725   -1.4059 H           1 M3S       0.0485
     22 H8         34.4761   41.3270   -0.3966 H           1 M3S       0.0485
     23 H9         33.6379   41.7108   -1.9173 H           1 M3S       0.0485
@<TRIPOS>BOND
     1     1     2   2
     2     2     3   1
     3     2    14   1
     4     3     4   1
     5     4     5  ar
     6     4    10  ar
     7     5     6   1
     8     5     7  ar
     9     7     8  ar
    10     8     9  ar
    11     9    10  ar
    12    10    11   1
    13    11    12  ar
    14    11    13  ar
    15     6    15   1
    16     6    16   1
    17     6    17   1
    18     7    18   1
    19     8    19   1
    20     9    20   1
    21    14    21   1
    22    14    22   1
    23    14    23   1
@<TRIPOS>SUBSTRUCTURE
     1  M3S      2

