@<TRIPOS>MOLECULE
3fcq_ligand_013
    23    23
SMALL
GAST_HUCK
****
This file was generated by PARSER (from files_GN.cpp)

@<TRIPOS>ATOM
      1 O12        30.8319   37.3800  -10.0076 O.2         1 M3S      -0.3640
      2 C11        30.3781   37.9631   -8.8720 C.2         1 M3S       0.2533
      3 O1         29.9987   39.2692   -8.8476 O.3         1 M3S      -0.2144
      4 C2         29.9690   40.1140   -9.9238 C.ar        1 M3S       0.1394
      5 C7         28.8613   40.0909  -10.8116 C.ar        1 M3S      -0.0078
      6 C1         27.7048   39.1923  -10.5663 C.3         1 M3S      -0.0317
      7 C6         28.8588   40.9608  -11.9270 C.ar        1 M3S      -0.0652
      8 C5         29.9318   41.8376  -12.1526 C.ar        1 M3S      -0.0752
      9 C4         31.0104   41.8750  -11.2579 C.ar        1 M3S      -0.0620
     10 C3         31.0309   41.0275  -10.1299 C.ar        1 M3S       0.0373
     11 C8         32.0992   41.1177   -9.2233 C.2         1 M3S       0.0573
     12 O10        33.2126   40.3713   -9.3972 O.co2       1 M3S      -0.5642
     13 O9         31.9857   41.8872   -8.1167 O.co2       1 M3S      -0.5642
     14 C13        30.2954   37.1776   -7.6350 C.3         1 M3S       0.0413
     15 H1         26.9064   39.3242  -11.3029 H           1 M3S       0.0370
     16 H2         27.2868   39.3917   -9.5759 H           1 M3S       0.0370
     17 H3         28.0359   38.1528  -10.6078 H           1 M3S       0.0370
     18 H4         28.0765   40.9597  -12.5889 H           1 M3S       0.0549
     19 H5         29.9196   42.4617  -12.9637 H           1 M3S       0.0520
     20 H6         31.7769   42.5353  -11.4267 H           1 M3S       0.0566
     21 H7         30.6519   36.1579   -7.7944 H           1 M3S       0.0485
     22 H8         29.2592   37.1359   -7.2996 H           1 M3S       0.0485
     23 H9         30.9026   37.6453   -6.8596 H           1 M3S       0.0485
@<TRIPOS>BOND
     1     1     2   2
     2     2     3   1
     3     2    14   1
     4     3     4   1
     5     4     5  ar
     6     4    10  ar
     7     5     6   1
     8     5     7  ar
     9     7     8  ar
    10     8     9  ar
    11     9    10  ar
    12    10    11   1
    13    11    12  ar
    14    11    13  ar
    15     6    15   1
    16     6    16   1
    17     6    17   1
    18     7    18   1
    19     8    19   1
    20     9    20   1
    21    14    21   1
    22    14    22   1
    23    14    23   1
@<TRIPOS>SUBSTRUCTURE
     1  M3S      2

