@<TRIPOS>MOLECULE
3fcq_ligand_020
    23    23
SMALL
GAST_HUCK
****
This file was generated by PARSER (from files_GN.cpp)

@<TRIPOS>ATOM
      1 O12        37.2770   39.1992   -4.6517 O.2         1 M3S      -0.3640
      2 C11        37.9699   40.1942   -4.0435 C.2         1 M3S       0.2533
      3 O1         38.8931   39.9252   -3.0788 O.3         1 M3S      -0.2144
      4 C2         39.1248   38.7243   -2.4566 C.ar        1 M3S       0.1394
      5 C7         38.2157   38.1718   -1.5188 C.ar        1 M3S      -0.0078
      6 C1         36.9215   38.8262   -1.1881 C.3         1 M3S      -0.0317
      7 C6         38.5787   36.9848   -0.8369 C.ar        1 M3S      -0.0652
      8 C5         39.8099   36.3577   -1.0818 C.ar        1 M3S      -0.0752
      9 C4         40.7129   36.9142   -2.0036 C.ar        1 M3S      -0.0620
     10 C3         40.3842   38.1075   -2.6788 C.ar        1 M3S       0.0373
     11 C8         41.2770   38.6639   -3.6031 C.2         1 M3S       0.0573
     12 O10        42.4957   39.0660   -3.1853 O.co2       1 M3S      -0.5642
     13 O9         41.0724   38.4161   -4.9144 O.co2       1 M3S      -0.5642
     14 C13        37.7446   41.5862   -4.4535 C.3         1 M3S       0.0413
     15 H1         36.3844   38.3170   -0.3850 H           1 M3S       0.0370
     16 H2         36.2679   38.8210   -2.0590 H           1 M3S       0.0370
     17 H3         37.0914   39.8599   -0.8746 H           1 M3S       0.0370
     18 H4         37.9458   36.5668   -0.1544 H           1 M3S       0.0549
     19 H5         40.0452   35.4893   -0.5948 H           1 M3S       0.0520
     20 H6         41.6010   36.4342   -2.1883 H           1 M3S       0.0566
     21 H7         36.9624   41.6327   -5.2177 H           1 M3S       0.0485
     22 H8         38.6732   41.9937   -4.8613 H           1 M3S       0.0485
     23 H9         37.4289   42.1802   -3.5894 H           1 M3S       0.0485
@<TRIPOS>BOND
     1     1     2   2
     2     2     3   1
     3     2    14   1
     4     3     4   1
     5     4     5  ar
     6     4    10  ar
     7     5     6   1
     8     5     7  ar
     9     7     8  ar
    10     8     9  ar
    11     9    10  ar
    12    10    11   1
    13    11    12  ar
    14    11    13  ar
    15     6    15   1
    16     6    16   1
    17     6    17   1
    18     7    18   1
    19     8    19   1
    20     9    20   1
    21    14    21   1
    22    14    22   1
    23    14    23   1
@<TRIPOS>SUBSTRUCTURE
     1  M3S      2

