@<TRIPOS>MOLECULE
3fcq_ligand_027
    23    23
SMALL
GAST_HUCK
****
This file was generated by PARSER (from files_GN.cpp)

@<TRIPOS>ATOM
      1 O12        31.9098   41.9233   -8.3011 O.2         1 M3S      -0.3640
      2 C11        33.1859   41.5547   -8.0395 C.2         1 M3S       0.2533
      3 O1         33.9431   40.8993   -8.9609 O.3         1 M3S      -0.2144
      4 C2         33.6327   40.5657  -10.2555 C.ar        1 M3S       0.1394
      5 C7         33.5363   39.1808  -10.5564 C.ar        1 M3S      -0.0078
      6 C1         33.7924   38.1586   -9.5093 C.3         1 M3S      -0.0317
      7 C6         33.1695   38.7787  -11.8610 C.ar        1 M3S      -0.0652
      8 C5         32.9187   39.7310  -12.8565 C.ar        1 M3S      -0.0752
      9 C4         33.0479   41.0955  -12.5691 C.ar        1 M3S      -0.0620
     10 C3         33.4239   41.5390  -11.2783 C.ar        1 M3S       0.0373
     11 C8         33.6347   42.9291  -11.0647 C.2         1 M3S       0.0573
     12 O10        33.1764   43.8645  -11.9354 O.co2       1 M3S      -0.5642
     13 O9         34.4571   43.3775  -10.0948 O.co2       1 M3S      -0.5642
     14 C13        33.7688   41.8390   -6.7239 C.3         1 M3S       0.0413
     15 H1         33.6828   37.1394   -9.8853 H           1 M3S       0.0370
     16 H2         33.0940   38.2882   -8.6791 H           1 M3S       0.0370
     17 H3         34.8110   38.2716   -9.1337 H           1 M3S       0.0370
     18 H4         33.0799   37.7881  -12.0923 H           1 M3S       0.0549
     19 H5         32.6625   39.4257  -13.7966 H           1 M3S       0.0520
     20 H6         32.8983   41.7635  -13.3322 H           1 M3S       0.0566
     21 H7         33.0401   42.3239   -6.0681 H           1 M3S       0.0485
     22 H8         34.6301   42.5022   -6.8432 H           1 M3S       0.0485
     23 H9         34.0950   40.9060   -6.2572 H           1 M3S       0.0485
@<TRIPOS>BOND
     1     1     2   2
     2     2     3   1
     3     2    14   1
     4     3     4   1
     5     4     5  ar
     6     4    10  ar
     7     5     6   1
     8     5     7  ar
     9     7     8  ar
    10     8     9  ar
    11     9    10  ar
    12    10    11   1
    13    11    12  ar
    14    11    13  ar
    15     6    15   1
    16     6    16   1
    17     6    17   1
    18     7    18   1
    19     8    19   1
    20     9    20   1
    21    14    21   1
    22    14    22   1
    23    14    23   1
@<TRIPOS>SUBSTRUCTURE
     1  M3S      2

