@<TRIPOS>MOLECULE
3fcq_ligand_040
    23    23
SMALL
GAST_HUCK
****
This file was generated by PARSER (from files_GN.cpp)

@<TRIPOS>ATOM
      1 O12        37.5056   38.3128   -0.2862 O.2         1 M3S      -0.3640
      2 C11        37.1228   38.0585   -1.5586 C.2         1 M3S       0.2533
      3 O1         37.9061   37.3275   -2.3965 O.3         1 M3S      -0.2144
      4 C2         39.0906   36.7226   -2.0722 C.ar        1 M3S       0.1394
      5 C7         39.0686   35.4564   -1.4264 C.ar        1 M3S      -0.0078
      6 C1         37.7888   34.7742   -1.1058 C.3         1 M3S      -0.0317
      7 C6         40.2932   34.8194   -1.1247 C.ar        1 M3S      -0.0652
      8 C5         41.5146   35.4155   -1.4684 C.ar        1 M3S      -0.0752
      9 C4         41.5266   36.6448   -2.1429 C.ar        1 M3S      -0.0620
     10 C3         40.3234   37.3239   -2.4494 C.ar        1 M3S       0.0373
     11 C8         40.3916   38.5771   -3.1146 C.2         1 M3S       0.0573
     12 O10        39.4364   39.5230   -2.9699 O.co2       1 M3S      -0.5642
     13 O9         41.4694   38.9288   -3.8559 O.co2       1 M3S      -0.5642
     14 C13        35.8599   38.6078   -2.0650 C.3         1 M3S       0.0413
     15 H1         37.9374   33.7891   -0.6573 H           1 M3S       0.0370
     16 H2         37.1989   34.6386   -2.0161 H           1 M3S       0.0370
     17 H3         37.2173   35.3771   -0.4015 H           1 M3S       0.0370
     18 H4         40.3090   33.9088   -0.6523 H           1 M3S       0.0549
     19 H5         42.3932   34.9474   -1.2428 H           1 M3S       0.0520
     20 H6         42.4325   37.0521   -2.3847 H           1 M3S       0.0566
     21 H7         35.3609   39.2063   -1.2990 H           1 M3S       0.0485
     22 H8         35.2000   37.7890   -2.3571 H           1 M3S       0.0485
     23 H9         36.0551   39.2385   -2.9333 H           1 M3S       0.0485
@<TRIPOS>BOND
     1     1     2   2
     2     2     3   1
     3     2    14   1
     4     3     4   1
     5     4     5  ar
     6     4    10  ar
     7     5     6   1
     8     5     7  ar
     9     7     8  ar
    10     8     9  ar
    11     9    10  ar
    12    10    11   1
    13    11    12  ar
    14    11    13  ar
    15     6    15   1
    16     6    16   1
    17     6    17   1
    18     7    18   1
    19     8    19   1
    20     9    20   1
    21    14    21   1
    22    14    22   1
    23    14    23   1
@<TRIPOS>SUBSTRUCTURE
     1  M3S      2

