@<TRIPOS>MOLECULE
3fcq_ligand_009
    23    23
SMALL
GAST_HUCK
****
This file was generated by PARSER (from files_GN.cpp)

@<TRIPOS>ATOM
      1 O12        36.5638   41.5170   -3.0412 O.2         1 M3S      -0.3640
      2 C11        35.5142   40.8512   -2.5152 C.2         1 M3S       0.2533
      3 O1         35.2150   39.5714   -2.8818 O.3         1 M3S      -0.2144
      4 C2         35.9176   38.7209   -3.7014 C.ar        1 M3S       0.1394
      5 C7         35.1931   38.0542   -4.7282 C.ar        1 M3S      -0.0078
      6 C1         33.7739   38.3834   -4.9843 C.3         1 M3S      -0.0317
      7 C6         35.8607   37.1062   -5.5390 C.ar        1 M3S      -0.0652
      8 C5         37.2297   36.8376   -5.3562 C.ar        1 M3S      -0.0752
      9 C4         37.9540   37.5133   -4.3604 C.ar        1 M3S      -0.0620
     10 C3         37.3032   38.4514   -3.5270 C.ar        1 M3S       0.0373
     11 C8         38.0394   39.0284   -2.4924 C.2         1 M3S       0.0573
     12 O10        37.8160   38.6380   -1.2228 O.co2       1 M3S      -0.5642
     13 O9         39.0210   39.9319   -2.7764 O.co2       1 M3S      -0.5642
     14 C13        34.5993   41.5498   -1.6109 C.3         1 M3S       0.0413
     15 H1         33.3383   37.7726   -5.7765 H           1 M3S       0.0370
     16 H2         33.6974   39.4306   -5.2877 H           1 M3S       0.0370
     17 H3         33.1817   38.2350   -4.0790 H           1 M3S       0.0370
     18 H4         35.3600   36.6111   -6.2671 H           1 M3S       0.0549
     19 H5         37.6993   36.1536   -5.9393 H           1 M3S       0.0520
     20 H6         38.9415   37.2978   -4.2256 H           1 M3S       0.0566
     21 H7         34.9735   42.5495   -1.4065 H           1 M3S       0.0485
     22 H8         34.5203   40.9960   -0.6777 H           1 M3S       0.0485
     23 H9         33.6175   41.6238   -2.0728 H           1 M3S       0.0485
@<TRIPOS>BOND
     1     1     2   2
     2     2     3   1
     3     2    14   1
     4     3     4   1
     5     4     5  ar
     6     4    10  ar
     7     5     6   1
     8     5     7  ar
     9     7     8  ar
    10     8     9  ar
    11     9    10  ar
    12    10    11   1
    13    11    12  ar
    14    11    13  ar
    15     6    15   1
    16     6    16   1
    17     6    17   1
    18     7    18   1
    19     8    19   1
    20     9    20   1
    21    14    21   1
    22    14    22   1
    23    14    23   1
@<TRIPOS>SUBSTRUCTURE
     1  M3S      2

