@<TRIPOS>MOLECULE
3fcq_ligand_025
    23    23
SMALL
GAST_HUCK
****
This file was generated by PARSER (from files_GN.cpp)

@<TRIPOS>ATOM
      1 O12        36.9964   32.8146   -2.9245 O.2         1 M3S      -0.3640
      2 C11        37.1919   33.4947   -1.7676 C.2         1 M3S       0.2533
      3 O1         37.2141   32.8633   -0.5621 O.3         1 M3S      -0.2144
      4 C2         36.9478   31.5508   -0.2629 C.ar        1 M3S       0.1394
      5 C7         37.9038   30.8506    0.5204 C.ar        1 M3S      -0.0078
      6 C1         39.1342   31.5288    1.0026 C.3         1 M3S      -0.0317
      7 C6         37.6819   29.4860    0.8207 C.ar        1 M3S      -0.0652
      8 C5         36.5249   28.8269    0.3719 C.ar        1 M3S      -0.0752
      9 C4         35.5621   29.5295   -0.3695 C.ar        1 M3S      -0.0620
     10 C3         35.7608   30.8922   -0.6878 C.ar        1 M3S       0.0373
     11 C8         34.7124   31.6064   -1.2891 C.2         1 M3S       0.0573
     12 O10        33.6090   31.8507   -0.5458 O.co2       1 M3S      -0.5642
     13 O9         34.5518   31.5265   -2.6320 O.co2       1 M3S      -0.5642
     14 C13        37.4942   34.9309   -1.8115 C.3         1 M3S       0.0413
     15 H1         39.7721   30.8663    1.5884 H           1 M3S       0.0370
     16 H2         38.8622   32.3769    1.6335 H           1 M3S       0.0370
     17 H3         39.7141   31.8925    0.1532 H           1 M3S       0.0370
     18 H4         38.3644   28.9584    1.3682 H           1 M3S       0.0549
     19 H5         36.3683   27.8412    0.6044 H           1 M3S       0.0520
     20 H6         34.7027   29.0464   -0.6473 H           1 M3S       0.0566
     21 H7         37.4841   35.2979   -2.8410 H           1 M3S       0.0485
     22 H8         38.4793   35.1153   -1.3771 H           1 M3S       0.0485
     23 H9         36.7465   35.4741   -1.2345 H           1 M3S       0.0485
@<TRIPOS>BOND
     1     1     2   2
     2     2     3   1
     3     2    14   1
     4     3     4   1
     5     4     5  ar
     6     4    10  ar
     7     5     6   1
     8     5     7  ar
     9     7     8  ar
    10     8     9  ar
    11     9    10  ar
    12    10    11   1
    13    11    12  ar
    14    11    13  ar
    15     6    15   1
    16     6    16   1
    17     6    17   1
    18     7    18   1
    19     8    19   1
    20     9    20   1
    21    14    21   1
    22    14    22   1
    23    14    23   1
@<TRIPOS>SUBSTRUCTURE
     1  M3S      2

