@<TRIPOS>MOLECULE
3fk1_ligand_024
    16    15
SMALL
GAST_HUCK
****
This file was generated by PARSER (from files_GN.cpp)

@<TRIPOS>ATOM
      1 C1         56.6415   12.2706   28.9191 C.3         1 GPF       0.0369
      2 C2         58.6373   12.2321   27.3332 C.3         1 GPF       0.0207
      3 C3         57.8086   12.8834   26.3075 C.2         1 GPF       0.0813
      4 O1         55.4825   10.9699   27.0160 O.co2       1 GPF      -0.5587
      5 O2         54.7953   13.1761   27.3347 O.co2       1 GPF      -0.5587
      6 O3         54.2041   11.5161   28.8451 O.co2       1 GPF      -0.5587
      7 O4         57.4291   14.1689   26.4700 O.co2       1 GPF      -0.5645
      8 P1         55.2728   11.9942   28.0052 P.3         1 GPF       0.1070
      9 O5         57.1796   12.1584   25.3566 O.co2       1 GPF      -0.5645
     10 N1         57.8795   11.5858   28.4430 N.4         1 GPF       0.2507
     11 H1         56.4405   11.8759   29.9185 H           1 GPF       0.1013
     12 H2         56.8127   13.3547   29.0180 H           1 GPF       0.1013
     13 H3         59.3539   12.9604   27.7507 H           1 GPF       0.0989
     14 H4         59.2158   11.4347   26.8397 H           1 GPF       0.0989
     15 H5         57.6640   10.6211   28.1673 H           1 GPF       0.2042
     16 H6         58.5245   11.5146   29.2344 H           1 GPF       0.2042
@<TRIPOS>BOND
     1     1     8   1
     2    10     1   1
     3     2     3   1
     4     2    10   1
     5     3     7  ar
     6     3     9  ar
     7     8     4  ar
     8     8     5  ar
     9     8     6  ar
    10     1    11   1
    11     1    12   1
    12     2    13   1
    13     2    14   1
    14    10    15   1
    15    10    16   1
@<TRIPOS>SUBSTRUCTURE
     1  GPF      1

