@<TRIPOS>MOLECULE
3fk1_ligand_030
    16    15
SMALL
GAST_HUCK
****
This file was generated by PARSER (from files_GN.cpp)

@<TRIPOS>ATOM
      1 C1         56.4995   12.9701   26.2885 C.3         1 GPF       0.0369
      2 C2         58.7684   13.1082   27.3417 C.3         1 GPF       0.0207
      3 C3         59.3055   11.7608   27.0818 C.2         1 GPF       0.0813
      4 O1         54.3513   13.0685   27.6586 O.co2       1 GPF      -0.5587
      5 O2         55.1187   10.9594   26.9637 O.co2       1 GPF      -0.5587
      6 O3         54.1751   12.4456   25.4144 O.co2       1 GPF      -0.5587
      7 O4         58.9961   10.7345   27.9060 O.co2       1 GPF      -0.5645
      8 P1         54.9959   12.3464   26.5949 P.3         1 GPF       0.1070
      9 O5         60.1642   11.5365   26.0642 O.co2       1 GPF      -0.5645
     10 N1         57.3037   13.0652   27.5317 N.4         1 GPF       0.2507
     11 H1         56.3944   13.9624   25.8491 H           1 GPF       0.1013
     12 H2         56.9819   12.3179   25.5559 H           1 GPF       0.1013
     13 H3         59.0386   13.7990   26.5377 H           1 GPF       0.0989
     14 H4         59.2128   13.4827   28.2632 H           1 GPF       0.0989
     15 H5         57.0928   12.2570   28.1223 H           1 GPF       0.2042
     16 H6         57.0342   13.9047   28.0553 H           1 GPF       0.2042
@<TRIPOS>BOND
     1     1     8   1
     2    10     1   1
     3     2     3   1
     4     2    10   1
     5     3     7  ar
     6     3     9  ar
     7     8     4  ar
     8     8     5  ar
     9     8     6  ar
    10     1    11   1
    11     1    12   1
    12     2    13   1
    13     2    14   1
    14    10    15   1
    15    10    16   1
@<TRIPOS>SUBSTRUCTURE
     1  GPF      1

