@<TRIPOS>MOLECULE
3fk1_ligand_016
    16    15
SMALL
GAST_HUCK
****
This file was generated by PARSER (from files_GN.cpp)

@<TRIPOS>ATOM
      1 C1         53.8826    9.7246   29.0852 C.3         1 GPF       0.0369
      2 C2         54.0654   10.8317   26.7905 C.3         1 GPF       0.0207
      3 C3         53.9695   12.1794   26.2074 C.2         1 GPF       0.0813
      4 O1         55.9024   10.6878   30.3645 O.co2       1 GPF      -0.5587
      5 O2         56.3350    9.5349   28.3706 O.co2       1 GPF      -0.5587
      6 O3         55.6833    8.3749   30.2736 O.co2       1 GPF      -0.5587
      7 O4         54.9280   13.1018   26.4667 O.co2       1 GPF      -0.5645
      8 P1         55.4791    9.5956   29.5268 P.3         1 GPF       0.1070
      9 O5         53.0757   12.4348   25.2279 O.co2       1 GPF      -0.5645
     10 N1         53.5419   10.8489   28.1748 N.4         1 GPF       0.2507
     11 H1         53.3196    9.8811   30.0060 H           1 GPF       0.1013
     12 H2         53.5499    8.7789   28.6535 H           1 GPF       0.1013
     13 H3         55.1100   10.5406   26.7679 H           1 GPF       0.0989
     14 H4         53.4882   10.1115   26.1986 H           1 GPF       0.0989
     15 H5         53.8318   11.7150   28.6222 H           1 GPF       0.2042
     16 H6         52.5246   10.8585   28.0766 H           1 GPF       0.2042
@<TRIPOS>BOND
     1     1     8   1
     2    10     1   1
     3     2     3   1
     4     2    10   1
     5     3     7  ar
     6     3     9  ar
     7     8     4  ar
     8     8     5  ar
     9     8     6  ar
    10     1    11   1
    11     1    12   1
    12     2    13   1
    13     2    14   1
    14    10    15   1
    15    10    16   1
@<TRIPOS>SUBSTRUCTURE
     1  GPF      1

