@<TRIPOS>MOLECULE
3fk1_ligand_028
    16    15
SMALL
GAST_HUCK
****
This file was generated by PARSER (from files_GN.cpp)

@<TRIPOS>ATOM
      1 C1         53.4705    7.1953   27.8396 C.3         1 GPF       0.0369
      2 C2         53.6866    9.2152   29.3971 C.3         1 GPF       0.0207
      3 C3         54.9755    9.7272   28.9095 C.2         1 GPF       0.0813
      4 O1         54.9270    6.0911   26.0750 O.co2       1 GPF      -0.5587
      5 O2         55.8918    7.8568   27.2169 O.co2       1 GPF      -0.5587
      6 O3         54.1827    8.2486   25.6384 O.co2       1 GPF      -0.5587
      7 O4         56.0899    9.6238   29.6638 O.co2       1 GPF      -0.5645
      8 P1         54.6461    7.3698   26.6812 P.3         1 GPF       0.1070
      9 O5         55.0726   10.2799   27.6783 O.co2       1 GPF      -0.5645
     10 N1         52.9233    8.4752   28.3607 N.4         1 GPF       0.2507
     11 H1         53.8527    6.5733   28.6478 H           1 GPF       0.1013
     12 H2         52.6399    6.6564   27.3806 H           1 GPF       0.1013
     13 H3         53.0811   10.0739   29.6996 H           1 GPF       0.0989
     14 H4         53.8299    8.5873   30.2765 H           1 GPF       0.0989
     15 H5         52.0216    8.2364   28.7930 H           1 GPF       0.2042
     16 H6         52.7207    9.1102   27.5840 H           1 GPF       0.2042
@<TRIPOS>BOND
     1     1     8   1
     2    10     1   1
     3     2     3   1
     4     2    10   1
     5     3     7  ar
     6     3     9  ar
     7     8     4  ar
     8     8     5  ar
     9     8     6  ar
    10     1    11   1
    11     1    12   1
    12     2    13   1
    13     2    14   1
    14    10    15   1
    15    10    16   1
@<TRIPOS>SUBSTRUCTURE
     1  GPF      1

