@<TRIPOS>MOLECULE
3fk1_ligand_018
    16    15
SMALL
GAST_HUCK
****
This file was generated by PARSER (from files_GN.cpp)

@<TRIPOS>ATOM
      1 C1         58.1089    9.9812   28.6286 C.3         1 GPF       0.0369
      2 C2         57.2358   12.1531   29.5706 C.3         1 GPF       0.0207
      3 C3         57.6494   13.0717   28.4961 C.2         1 GPF       0.0813
      4 O1         59.5378    8.1418   27.5959 O.co2       1 GPF      -0.5587
      5 O2         58.8096    7.8080   29.7844 O.co2       1 GPF      -0.5587
      6 O3         60.4930    9.3807   29.3307 O.co2       1 GPF      -0.5587
      7 O4         56.7275   13.7887   27.8181 O.co2       1 GPF      -0.5645
      8 P1         59.2633    8.8033   28.8464 P.3         1 GPF       0.1070
      9 O5         58.9235   13.5333   28.4845 O.co2       1 GPF      -0.5645
     10 N1         58.1304   10.9800   29.7298 N.4         1 GPF       0.2507
     11 H1         57.1190    9.5163   28.5708 H           1 GPF       0.1013
     12 H2         58.3157   10.4916   27.6832 H           1 GPF       0.1013
     13 H3         56.2105   11.8205   29.4104 H           1 GPF       0.0989
     14 H4         57.2631   12.7121   30.5044 H           1 GPF       0.0989
     15 H5         59.0872   11.3297   29.8200 H           1 GPF       0.2042
     16 H6         57.8939   10.5092   30.6061 H           1 GPF       0.2042
@<TRIPOS>BOND
     1     1     8   1
     2    10     1   1
     3     2     3   1
     4     2    10   1
     5     3     7  ar
     6     3     9  ar
     7     8     4  ar
     8     8     5  ar
     9     8     6  ar
    10     1    11   1
    11     1    12   1
    12     2    13   1
    13     2    14   1
    14    10    15   1
    15    10    16   1
@<TRIPOS>SUBSTRUCTURE
     1  GPF      1

