@<TRIPOS>MOLECULE
3fk1_ligand_010
    16    15
SMALL
GAST_HUCK
****
This file was generated by PARSER (from files_GN.cpp)

@<TRIPOS>ATOM
      1 C1         53.4124    7.9777   27.5319 C.3         1 GPF       0.0369
      2 C2         55.3894    6.6026   26.7156 C.3         1 GPF       0.0207
      3 C3         55.7316    5.2265   26.3323 C.2         1 GPF       0.0813
      4 O1         55.3605    9.5753   27.9405 O.co2       1 GPF      -0.5587
      5 O2         54.5904    8.3306   29.7827 O.co2       1 GPF      -0.5587
      6 O3         53.3255   10.0973   28.9355 O.co2       1 GPF      -0.5587
      7 O4         55.5688    4.2147   27.2145 O.co2       1 GPF      -0.5645
      8 P1         54.1982    9.0083   28.5723 P.3         1 GPF       0.1070
      9 O5         56.4179    4.9779   25.1960 O.co2       1 GPF      -0.5645
     10 N1         54.0344    6.6503   27.3034 N.4         1 GPF       0.2507
     11 H1         53.2801    8.4862   26.5750 H           1 GPF       0.1013
     12 H2         52.4185    7.7906   27.9452 H           1 GPF       0.1013
     13 H3         55.4521    7.2542   25.8401 H           1 GPF       0.0989
     14 H4         56.1234    6.9370   27.4508 H           1 GPF       0.0989
     15 H5         53.4090    6.1400   26.6816 H           1 GPF       0.2042
     16 H6         54.0549    6.1494   28.1918 H           1 GPF       0.2042
@<TRIPOS>BOND
     1     1     8   1
     2    10     1   1
     3     2     3   1
     4     2    10   1
     5     3     7  ar
     6     3     9  ar
     7     8     4  ar
     8     8     5  ar
     9     8     6  ar
    10     1    11   1
    11     1    12   1
    12     2    13   1
    13     2    14   1
    14    10    15   1
    15    10    16   1
@<TRIPOS>SUBSTRUCTURE
     1  GPF      1

