@<TRIPOS>MOLECULE
3fk1_ligand_011
    16    15
SMALL
GAST_HUCK
****
This file was generated by PARSER (from files_GN.cpp)

@<TRIPOS>ATOM
      1 C1         57.6066   10.3003   29.3553 C.3         1 GPF       0.0369
      2 C2         59.5813    8.8680   29.8851 C.3         1 GPF       0.0207
      3 C3         60.0467    7.9174   30.9058 C.2         1 GPF       0.0813
      4 O1         55.5745   10.2367   30.9141 O.co2       1 GPF      -0.5587
      5 O2         55.2963    9.4370   28.7299 O.co2       1 GPF      -0.5587
      6 O3         55.5047   11.7305   29.1213 O.co2       1 GPF      -0.5587
      7 O4         60.7063    8.3833   31.9952 O.co2       1 GPF      -0.5645
      8 P1         55.9618   10.4295   29.5393 P.3         1 GPF       0.1070
      9 O5         59.8622    6.5866   30.7537 O.co2       1 GPF      -0.5645
     10 N1         58.1276    9.0938   30.0432 N.4         1 GPF       0.2507
     11 H1         58.0739   11.1896   29.7804 H           1 GPF       0.1013
     12 H2         57.8413   10.2624   28.2889 H           1 GPF       0.1013
     13 H3         59.7747    8.4668   28.8898 H           1 GPF       0.0989
     14 H4         60.1446    9.8023   29.9863 H           1 GPF       0.0989
     15 H5         57.6273    8.2658   29.7021 H           1 GPF       0.2042
     16 H6         57.9491    9.1958   31.0445 H           1 GPF       0.2042
@<TRIPOS>BOND
     1     1     8   1
     2    10     1   1
     3     2     3   1
     4     2    10   1
     5     3     7  ar
     6     3     9  ar
     7     8     4  ar
     8     8     5  ar
     9     8     6  ar
    10     1    11   1
    11     1    12   1
    12     2    13   1
    13     2    14   1
    14    10    15   1
    15    10    16   1
@<TRIPOS>SUBSTRUCTURE
     1  GPF      1

