@<TRIPOS>MOLECULE
3fk1_ligand_026
    16    15
SMALL
GAST_HUCK
****
This file was generated by PARSER (from files_GN.cpp)

@<TRIPOS>ATOM
      1 C1         60.4069    9.9591   26.7568 C.3         1 GPF       0.0369
      2 C2         58.8438   11.9243   26.6297 C.3         1 GPF       0.0207
      3 C3         57.7027   12.5989   27.2783 C.2         1 GPF       0.0813
      4 O1         61.7412    7.8398   27.1512 O.co2       1 GPF      -0.5587
      5 O2         60.0466    8.2859   28.6932 O.co2       1 GPF      -0.5587
      6 O3         62.0100    9.5571   28.6938 O.co2       1 GPF      -0.5587
      7 O4         57.0486   12.0514   28.3286 O.co2       1 GPF      -0.5645
      8 P1         61.0493    8.8903   27.8525 P.3         1 GPF       0.1070
      9 O5         57.2975   13.8132   26.8375 O.co2       1 GPF      -0.5645
     10 N1         59.2509   10.6874   27.3373 N.4         1 GPF       0.2507
     11 H1         60.0773    9.4114   25.8727 H           1 GPF       0.1013
     12 H2         61.1976   10.6485   26.4484 H           1 GPF       0.1013
     13 H3         59.6837   12.6214   26.6142 H           1 GPF       0.0989
     14 H4         58.5630   11.6875   25.6001 H           1 GPF       0.0989
     15 H5         59.4614   10.9395   28.3022 H           1 GPF       0.2042
     16 H6         58.4540   10.0496   27.3602 H           1 GPF       0.2042
@<TRIPOS>BOND
     1     1     8   1
     2    10     1   1
     3     2     3   1
     4     2    10   1
     5     3     7  ar
     6     3     9  ar
     7     8     4  ar
     8     8     5  ar
     9     8     6  ar
    10     1    11   1
    11     1    12   1
    12     2    13   1
    13     2    14   1
    14    10    15   1
    15    10    16   1
@<TRIPOS>SUBSTRUCTURE
     1  GPF      1

