@<TRIPOS>MOLECULE
3fk1_ligand_012
    16    15
SMALL
GAST_HUCK
****
This file was generated by PARSER (from files_GN.cpp)

@<TRIPOS>ATOM
      1 C1         54.1673    5.8954   26.6942 C.3         1 GPF       0.0369
      2 C2         55.9389    4.0959   27.0663 C.3         1 GPF       0.0207
      3 C3         56.2931    3.9687   25.6426 C.2         1 GPF       0.0813
      4 O1         54.0193    7.1959   28.8837 O.co2       1 GPF      -0.5587
      5 O2         53.9370    8.4102   26.9019 O.co2       1 GPF      -0.5587
      6 O3         55.9625    7.5097   27.6135 O.co2       1 GPF      -0.5587
      7 O4         57.5943    3.8746   25.2897 O.co2       1 GPF      -0.5645
      8 P1         54.5426    7.2728   27.5454 P.3         1 GPF       0.1070
      9 O5         55.3758    3.5034   24.7643 O.co2       1 GPF      -0.5645
     10 N1         54.5668    4.6112   27.3233 N.4         1 GPF       0.2507
     11 H1         54.5943    5.9738   25.6929 H           1 GPF       0.1013
     12 H2         53.0819    5.8745   26.5893 H           1 GPF       0.1013
     13 H3         56.6635    4.7462   27.5546 H           1 GPF       0.0989
     14 H4         56.0129    3.1102   27.5299 H           1 GPF       0.0989
     15 H5         53.8965    3.9021   27.0103 H           1 GPF       0.2042
     16 H6         54.4567    4.7029   28.3350 H           1 GPF       0.2042
@<TRIPOS>BOND
     1     1     8   1
     2    10     1   1
     3     2     3   1
     4     2    10   1
     5     3     7  ar
     6     3     9  ar
     7     8     4  ar
     8     8     5  ar
     9     8     6  ar
    10     1    11   1
    11     1    12   1
    12     2    13   1
    13     2    14   1
    14    10    15   1
    15    10    16   1
@<TRIPOS>SUBSTRUCTURE
     1  GPF      1

