@<TRIPOS>MOLECULE
3fk1_ligand_022
    16    15
SMALL
GAST_HUCK
****
This file was generated by PARSER (from files_GN.cpp)

@<TRIPOS>ATOM
      1 C1         54.6554    3.9024   25.6921 C.3         1 GPF       0.0369
      2 C2         54.5521    6.1155   26.9472 C.3         1 GPF       0.0207
      3 C3         53.6045    6.8807   27.7611 C.2         1 GPF       0.0813
      4 O1         56.7145    2.6947   24.7901 O.co2       1 GPF      -0.5587
      5 O2         56.8212    3.4425   27.0044 O.co2       1 GPF      -0.5587
      6 O3         56.9085    4.9733   25.2363 O.co2       1 GPF      -0.5587
      7 O4         52.4131    7.2604   27.2637 O.co2       1 GPF      -0.5645
      8 P1         56.3113    3.7439   25.6922 P.3         1 GPF       0.1070
      9 O5         53.8909    7.1804   29.0439 O.co2       1 GPF      -0.5645
     10 N1         54.0839    4.7196   26.7934 N.4         1 GPF       0.2507
     11 H1         54.2271    2.9042   25.7869 H           1 GPF       0.1013
     12 H2         54.3425    4.3042   24.7254 H           1 GPF       0.1013
     13 H3         55.5327    6.1143   27.4326 H           1 GPF       0.0989
     14 H4         54.6602    6.5914   25.9712 H           1 GPF       0.0989
     15 H5         54.2528    4.2284   27.6746 H           1 GPF       0.2042
     16 H6         53.0753    4.7474   26.6486 H           1 GPF       0.2042
@<TRIPOS>BOND
     1     1     8   1
     2    10     1   1
     3     2     3   1
     4     2    10   1
     5     3     7  ar
     6     3     9  ar
     7     8     4  ar
     8     8     5  ar
     9     8     6  ar
    10     1    11   1
    11     1    12   1
    12     2    13   1
    13     2    14   1
    14    10    15   1
    15    10    16   1
@<TRIPOS>SUBSTRUCTURE
     1  GPF      1

