@<TRIPOS>MOLECULE
3fk1_ligand_027
    16    15
SMALL
GAST_HUCK
****
This file was generated by PARSER (from files_GN.cpp)

@<TRIPOS>ATOM
      1 C1         56.4143   13.1840   27.8719 C.3         1 GPF       0.0369
      2 C2         58.0066   11.5407   28.9099 C.3         1 GPF       0.0207
      3 C3         58.6196   11.0989   30.1734 C.2         1 GPF       0.0813
      4 O1         54.1661   13.0275   26.6711 O.co2       1 GPF      -0.5587
      5 O2         54.4241   11.7738   28.6323 O.co2       1 GPF      -0.5587
      6 O3         55.5177   11.1279   26.6768 O.co2       1 GPF      -0.5587
      7 O4         59.7432   10.3468   30.1599 O.co2       1 GPF      -0.5645
      8 P1         55.0993   12.2630   27.4579 P.3         1 GPF       0.1070
      9 O5         58.0679   11.4275   31.3612 O.co2       1 GPF      -0.5645
     10 N1         57.0495   12.6536   29.0987 N.4         1 GPF       0.2507
     11 H1         56.0843   14.2116   28.0369 H           1 GPF       0.1013
     12 H2         57.1249   13.1701   27.0429 H           1 GPF       0.1013
     13 H3         57.5126   10.7032   28.4108 H           1 GPF       0.0989
     14 H4         58.8042   11.8925   28.2542 H           1 GPF       0.0989
     15 H5         56.3148   12.3399   29.7366 H           1 GPF       0.2042
     16 H6         57.5528   13.4224   29.5475 H           1 GPF       0.2042
@<TRIPOS>BOND
     1     1     8   1
     2    10     1   1
     3     2     3   1
     4     2    10   1
     5     3     7  ar
     6     3     9  ar
     7     8     4  ar
     8     8     5  ar
     9     8     6  ar
    10     1    11   1
    11     1    12   1
    12     2    13   1
    13     2    14   1
    14    10    15   1
    15    10    16   1
@<TRIPOS>SUBSTRUCTURE
     1  GPF      1

