@<TRIPOS>MOLECULE
3fk1_ligand_014
    16    15
SMALL
GAST_HUCK
****
This file was generated by PARSER (from files_GN.cpp)

@<TRIPOS>ATOM
      1 C1         58.9225    8.1197   30.2803 C.3         1 GPF       0.0369
      2 C2         58.3537   10.1216   28.7195 C.3         1 GPF       0.0207
      3 C3         59.2898    9.5841   27.7054 C.2         1 GPF       0.0813
      4 O1         61.2127    8.1460   29.1957 O.co2       1 GPF      -0.5587
      5 O2         61.1764    7.7496   31.5007 O.co2       1 GPF      -0.5587
      6 O3         60.7900    9.8901   30.6696 O.co2       1 GPF      -0.5587
      7 O4         59.1706    8.3291   27.2003 O.co2       1 GPF      -0.5645
      8 P1         60.5449    8.4843   30.4320 P.3         1 GPF       0.1070
      9 O5         60.2972   10.3778   27.2413 O.co2       1 GPF      -0.5645
     10 N1         58.0522    9.2625   29.8931 N.4         1 GPF       0.2507
     11 H1         58.5644    7.7524   31.2431 H           1 GPF       0.1013
     12 H2         58.7911    7.3039   29.5640 H           1 GPF       0.1013
     13 H3         57.4055   10.3377   28.2222 H           1 GPF       0.0989
     14 H4         58.7462   11.0722   29.1012 H           1 GPF       0.0989
     15 H5         57.9686    9.8658   30.7137 H           1 GPF       0.2042
     16 H6         57.1185    8.8629   29.7470 H           1 GPF       0.2042
@<TRIPOS>BOND
     1     1     8   1
     2    10     1   1
     3     2     3   1
     4     2    10   1
     5     3     7  ar
     6     3     9  ar
     7     8     4  ar
     8     8     5  ar
     9     8     6  ar
    10     1    11   1
    11     1    12   1
    12     2    13   1
    13     2    14   1
    14    10    15   1
    15    10    16   1
@<TRIPOS>SUBSTRUCTURE
     1  GPF      1

