@<TRIPOS>MOLECULE
3fk1_ligand_025
    16    15
SMALL
GAST_HUCK
****
This file was generated by PARSER (from files_GN.cpp)

@<TRIPOS>ATOM
      1 C1         56.5643   12.1012   28.4179 C.3         1 GPF       0.0369
      2 C2         58.5934   13.2697   27.3671 C.3         1 GPF       0.0207
      3 C3         58.9607   12.1737   26.4523 C.2         1 GPF       0.0813
      4 O1         57.5696   12.5566   30.7512 O.co2       1 GPF      -0.5587
      5 O2         58.6203   10.9613   29.3956 O.co2       1 GPF      -0.5587
      6 O3         56.5574   10.5031   30.3731 O.co2       1 GPF      -0.5587
      7 O4         58.1613   11.8635   25.4099 O.co2       1 GPF      -0.5645
      8 P1         57.3474   11.5312   29.7693 P.3         1 GPF       0.1070
      9 O5         60.2242   11.6868   26.4600 O.co2       1 GPF      -0.5645
     10 N1         57.1635   13.2809   27.7551 N.4         1 GPF       0.2507
     11 H1         55.5511   12.3737   28.7122 H           1 GPF       0.1013
     12 H2         56.4892   11.2944   27.6924 H           1 GPF       0.1013
     13 H3         58.8048   14.2203   26.8703 H           1 GPF       0.0989
     14 H4         59.2001   13.2153   28.2729 H           1 GPF       0.0989
     15 H5         57.0381   14.0846   28.3708 H           1 GPF       0.2042
     16 H6         56.6234   13.4354   26.9020 H           1 GPF       0.2042
@<TRIPOS>BOND
     1     1     8   1
     2    10     1   1
     3     2     3   1
     4     2    10   1
     5     3     7  ar
     6     3     9  ar
     7     8     4  ar
     8     8     5  ar
     9     8     6  ar
    10     1    11   1
    11     1    12   1
    12     2    13   1
    13     2    14   1
    14    10    15   1
    15    10    16   1
@<TRIPOS>SUBSTRUCTURE
     1  GPF      1

