@<TRIPOS>MOLECULE
3fk1_ligand_017
    16    15
SMALL
GAST_HUCK
****
This file was generated by PARSER (from files_GN.cpp)

@<TRIPOS>ATOM
      1 C1         57.6513   12.8383   28.5043 C.3         1 GPF       0.0369
      2 C2         56.5960   12.7140   26.1904 C.3         1 GPF       0.0207
      3 C3         55.2967   12.2654   26.7300 C.2         1 GPF       0.0813
      4 O1         58.7784   10.7574   29.4641 O.co2       1 GPF      -0.5587
      5 O2         56.4463   10.6829   29.1799 O.co2       1 GPF      -0.5587
      6 O3         57.3908   11.9884   30.8706 O.co2       1 GPF      -0.5587
      7 O4         54.2983   13.1540   26.9414 O.co2       1 GPF      -0.5645
      8 P1         57.5621   11.5266   29.5230 P.3         1 GPF       0.1070
      9 O5         55.1016   10.9648   27.0613 O.co2       1 GPF      -0.5645
     10 N1         57.7574   12.4483   27.0708 N.4         1 GPF       0.2507
     11 H1         58.5503   13.3976   28.7701 H           1 GPF       0.1013
     12 H2         56.7876   13.4858   28.6936 H           1 GPF       0.1013
     13 H3         56.5636   13.7870   25.9743 H           1 GPF       0.0989
     14 H4         56.7720   12.1896   25.2465 H           1 GPF       0.0989
     15 H5         57.9913   11.4585   27.0077 H           1 GPF       0.2042
     16 H6         58.5508   12.9635   26.6792 H           1 GPF       0.2042
@<TRIPOS>BOND
     1     1     8   1
     2    10     1   1
     3     2     3   1
     4     2    10   1
     5     3     7  ar
     6     3     9  ar
     7     8     4  ar
     8     8     5  ar
     9     8     6  ar
    10     1    11   1
    11     1    12   1
    12     2    13   1
    13     2    14   1
    14    10    15   1
    15    10    16   1
@<TRIPOS>SUBSTRUCTURE
     1  GPF      1

