@<TRIPOS>MOLECULE
3fk1_ligand_004
    16    15
SMALL
GAST_HUCK
****
This file was generated by PARSER (from files_GN.cpp)

@<TRIPOS>ATOM
      1 C1         59.7963    8.7826   30.4988 C.3         1 GPF       0.0369
      2 C2         59.6007    8.8123   27.9604 C.3         1 GPF       0.0207
      3 C3         60.8473    9.0364   27.2045 C.2         1 GPF       0.0813
      4 O1         61.8143    8.3876   32.0133 O.co2       1 GPF      -0.5587
      5 O2         61.2102   10.5695   31.6142 O.co2       1 GPF      -0.5587
      6 O3         62.2953    9.3590   29.9457 O.co2       1 GPF      -0.5587
      7 O4         61.2865    8.0924   26.3609 O.co2       1 GPF      -0.5645
      8 P1         61.3093    9.2728   30.9949 P.3         1 GPF       0.1070
      9 O5         61.4387   10.2630   27.1575 O.co2       1 GPF      -0.5645
     10 N1         59.7791    8.0260   29.2163 N.4         1 GPF       0.2507
     11 H1         59.1280    9.6469   30.4391 H           1 GPF       0.1013
     12 H2         59.3862    8.1242   31.2684 H           1 GPF       0.1013
     13 H3         58.9182    8.2471   27.3221 H           1 GPF       0.0989
     14 H4         59.1227    9.7694   28.1572 H           1 GPF       0.0989
     15 H5         58.9759    7.3898   29.2708 H           1 GPF       0.2042
     16 H6         60.6317    7.4488   29.1640 H           1 GPF       0.2042
@<TRIPOS>BOND
     1     1     8   1
     2    10     1   1
     3     2     3   1
     4     2    10   1
     5     3     7  ar
     6     3     9  ar
     7     8     4  ar
     8     8     5  ar
     9     8     6  ar
    10     1    11   1
    11     1    12   1
    12     2    13   1
    13     2    14   1
    14    10    15   1
    15    10    16   1
@<TRIPOS>SUBSTRUCTURE
     1  GPF      1

