@<TRIPOS>MOLECULE
3fv1_ligand_002
    41    42
SMALL
GAST_HUCK
****
This file was generated by PARSER (from files_GN.cpp)

@<TRIPOS>ATOM
      1 CAA        -7.7666   15.1660   25.0130 C.3         1 DYH      -0.0444
      2 NH         -8.8875   14.6562   24.2022 N.4         1 DYH       0.2308
      3 CAH        -9.5316   15.5797   23.2253 C.3         1 DYH       0.0349
      4 CAG       -10.9387   15.0259   22.8530 C.3         1 DYH       0.1232
      5 OAC       -10.8853   13.6548   22.4409 O.3         1 DYH      -0.3838
      6 CAP       -11.5925   15.8812   21.7361 C.3         1 DYH       0.0794
      7 OAQ       -10.7580   15.9025   20.5702 O.3         1 DYH      -0.3710
      8 CAR        -9.4574   16.4838   20.7863 C.3         1 DYH       0.0923
      9 CAS        -8.5523   16.1273   19.6012 C.3         1 DYH       0.0103
     10 CAI        -8.6639   15.8697   21.9617 C.3         1 DYH       0.1293
     11 OAJ        -8.0510   14.6796   21.4570 O.3         1 DYH      -0.3574
     12 CAK        -7.8466   14.8023   20.0411 C.3         1 DYH       0.1231
     13 CAE        -8.5057   13.5761   19.5101 C.2         1 DYH       0.0769
     14 OAB        -9.8565   13.4733   19.4977 O.co2       1 DYH      -0.5451
     15 OAF        -7.8462   12.3970   19.5858 O.co2       1 DYH      -0.5451
     16 CB         -6.3029   14.8425   19.7670 C.3         1 DYH       0.0363
     17 CA         -5.8496   14.9754   18.2746 C.3         1 DYH       0.0305
     18 C          -4.4232   15.3570   18.1534 C.2         1 DYH       0.0844
     19 OXT        -3.9651   16.4595   18.7892 O.co2       1 DYH      -0.5643
     20 O          -3.5004   14.5265   17.6253 O.co2       1 DYH      -0.5643
     21 N          -6.1137   13.7283   17.5406 N.4         1 DYH       0.2327
     22 H1         -7.4317   14.3660   25.6731 H           1 DYH       0.0777
     23 H2         -8.0920   16.0057   25.6273 H           1 DYH       0.0777
     24 H3         -6.9323   15.4650   24.3731 H           1 DYH       0.0777
     25 H4         -9.6112   14.3685   24.8472 H           1 DYH       0.2015
     26 H5         -8.5636   13.8158   23.7163 H           1 DYH       0.2015
     27 H6         -9.6995   16.5354   23.7226 H           1 DYH       0.0904
     28 H7        -11.5822   15.0709   23.7350 H           1 DYH       0.0674
     29 H8        -10.1720   13.6037   21.7772 H           1 DYH       0.2101
     30 H9        -11.7823   16.8947   22.0866 H           1 DYH       0.0588
     31 H10       -12.5466   15.4295   21.4634 H           1 DYH       0.0588
     32 H11        -9.5533   17.5703   20.8922 H           1 DYH       0.0624
     33 H12        -7.8295   16.9427   19.4663 H           1 DYH       0.0311
     34 H13        -9.1197   16.0290   18.6716 H           1 DYH       0.0311
     35 H14        -7.8549   16.5572   22.2409 H           1 DYH       0.0679
     36 H15        -5.8412   13.9533   20.1870 H           1 DYH       0.0359
     37 H16        -5.9002   15.6934   20.3263 H           1 DYH       0.0359
     38 H17        -6.4312   15.7566   17.7803 H           1 DYH       0.1024
     39 H18        -5.7770   13.8036   16.5852 H           1 DYH       0.2010
     40 H19        -7.1148   13.5512   17.5242 H           1 DYH       0.2010
     41 H20        -5.6390   12.9486   18.0092 H           1 DYH       0.2010
@<TRIPOS>BOND
     1     1     2   1
     2     2     3   1
     3     3     4   1
     4     3    10   1
     5     4     5   1
     6     4     6   1
     7     6     7   1
     8     7     8   1
     9     8     9   1
    10     8    10   1
    11     9    12   1
    12    10    11   1
    13    11    12   1
    14    12    13   1
    15    12    16   1
    16    13    14  ar
    17    13    15  ar
    18    16    17   1
    19    17    18   1
    20    17    21   1
    21    18    19  ar
    22    18    20  ar
    23     1    22   1
    24     1    23   1
    25     1    24   1
    26     2    25   1
    27     2    26   1
    28     3    27   1
    29     4    28   1
    30     5    29   1
    31     6    30   1
    32     6    31   1
    33     8    32   1
    34     9    33   1
    35     9    34   1
    36    10    35   1
    37    16    36   1
    38    16    37   1
    39    17    38   1
    40    21    39   1
    41    21    40   1
    42    21    41   1
@<TRIPOS>SUBSTRUCTURE
     1  DYH      1

