@<TRIPOS>MOLECULE
3g0w_ligand_050
    37    39
SMALL
GAST_HUCK
****
This file was generated by PARSER (from files_GN.cpp)

@<TRIPOS>ATOM
      1 C1         51.7156    4.7298    5.5340 C.3         1 LGB       0.0449
      2 N2         52.9605    5.1373    4.9851 N.pl3       1 LGB      -0.2354
      3 C3         53.6817    4.1298    4.3354 C.3         1 LGB       0.1199
      4 C4         52.6564    2.9892    4.1085 C.3         1 LGB       0.0850
      5 C5         51.3123    3.5700    4.6048 C.3         1 LGB      -0.0025
      6 C6         53.2985    6.3547    4.5182 C.2         1 LGB       0.2667
      7 O7         54.2695    6.2923    3.5679 O.3         1 LGB      -0.2358
      8 C8         54.2048    4.9296    3.1145 C.3         1 LGB       0.2188
      9 N9         52.6993    7.4912    4.9372 N.2         1 LGB      -0.2946
     10 C10        52.7737    8.8276    4.6433 C.ar        1 LGB       0.0001
     11 C11        52.0342    9.7615    5.4350 C.ar        1 LGB      -0.0192
     12 C12        52.0944   11.1530    5.1138 C.ar        1 LGB       0.0660
     13 C13        52.8376   11.5984    3.9837 C.ar        1 LGB       0.0905
     14 C14        53.5597   10.6646    3.2166 C.ar        1 LGB      -0.0438
     15 C15        53.5394    9.3009    3.5571 C.ar        1 LGB      -0.0559
     16 C16        51.1643    9.2992    6.5579 C.3         1 LGB      -0.0320
     17 CL17       51.2962   12.3041    6.0923 Cl          1 LGB      -0.0696
     18 O18        52.9967    1.8108    4.8411 O.3         1 LGB      -0.3892
     19 C19        52.9009   12.8492    3.6184 C.1         1 LGB       0.0860
     20 N20        52.9922   13.9477    3.2928 N.1         1 LGB      -0.3388
     21 C21        55.5803    4.4700    2.5811 C.3         1 LGB       0.4246
     22 F22        55.5388    3.1429    2.2283 F           1 LGB      -0.1673
     23 F23        56.5582    4.6395    3.5311 F           1 LGB      -0.1673
     24 F24        55.9327    5.2124    1.4792 F           1 LGB      -0.1673
     25 H1         50.9554    5.5166    5.5319 H           1 LGB       0.0541
     26 H2         51.8735    4.3670    6.5527 H           1 LGB       0.0541
     27 H3         54.5036    3.8111    4.9835 H           1 LGB       0.0637
     28 H4         52.6009    2.7073    3.0548 H           1 LGB       0.0619
     29 H5         50.7461    3.9560    3.7513 H           1 LGB       0.0312
     30 H6         50.7047    2.8297    5.1321 H           1 LGB       0.0312
     31 H7         53.4753    4.8751    2.2959 H           1 LGB       0.0794
     32 H8         54.1361   10.9554    2.4179 H           1 LGB       0.0636
     33 H9         54.0771    8.6536    2.9758 H           1 LGB       0.0538
     34 H10        51.2016    8.2239    6.7143 H           1 LGB       0.0378
     35 H11        50.1235    9.5561    6.3538 H           1 LGB       0.0378
     36 H12        51.4799    9.7718    7.4870 H           1 LGB       0.0378
     37 H13        52.8230    2.0100    5.7845 H           1 LGB       0.2099
@<TRIPOS>BOND
     1     1     2   1
     2     1     5   1
     3     2     3   1
     4     2     6   1
     5     3     4   1
     6     3     8   1
     7     4     5   1
     8     4    18   1
     9     6     7   1
    10     6     9   2
    11     7     8   1
    12     8    21   1
    13     9    10   1
    14    10    11  ar
    15    10    15  ar
    16    11    12  ar
    17    11    16   1
    18    12    13  ar
    19    12    17   1
    20    13    14  ar
    21    13    19   1
    22    14    15  ar
    23    19    20   3
    24    21    22   1
    25    21    23   1
    26    21    24   1
    27     1    25   1
    28     1    26   1
    29     3    27   1
    30     4    28   1
    31     5    29   1
    32     5    30   1
    33     8    31   1
    34    14    32   1
    35    15    33   1
    36    16    34   1
    37    16    35   1
    38    16    36   1
    39    18    37   1
@<TRIPOS>SUBSTRUCTURE
     1  LGB      1

