@<TRIPOS>MOLECULE
3g0w_ligand_001
    37    39
SMALL
GAST_HUCK
****
This file was generated by PARSER (from files_GN.cpp)

@<TRIPOS>ATOM
      1 C1         54.4754    6.7479    3.9042 C.3         1 LGB       0.0449
      2 N2         53.6682    5.6564    4.3180 N.pl3       1 LGB      -0.2354
      3 C3         52.3406    5.9377    4.6410 C.3         1 LGB       0.1199
      4 C4         52.0779    7.3084    3.9795 C.3         1 LGB       0.0850
      5 C5         53.4893    7.9325    3.9033 C.3         1 LGB      -0.0025
      6 C6         53.8274    4.3474    4.0652 C.2         1 LGB       0.2667
      7 O7         52.6609    3.6469    4.1729 O.3         1 LGB      -0.2358
      8 C8         51.6412    4.6627    4.1095 C.3         1 LGB       0.2188
      9 N9         55.0291    3.7903    3.8126 N.2         1 LGB      -0.2946
     10 C10        55.3473    2.4937    3.5257 C.ar        1 LGB       0.0001
     11 C11        56.5046    1.8974    4.0869 C.ar        1 LGB      -0.0192
     12 C12        56.7896    0.5208    3.8086 C.ar        1 LGB       0.0660
     13 C13        55.9233   -0.2172    2.9529 C.ar        1 LGB       0.0905
     14 C14        54.8128    0.4069    2.3739 C.ar        1 LGB      -0.0438
     15 C15        54.5189    1.7530    2.6618 C.ar        1 LGB      -0.0559
     16 C16        57.4085    2.6673    4.9983 C.3         1 LGB      -0.0320
     17 CL17       58.1189   -0.2527    4.5389 Cl          1 LGB      -0.0696
     18 O18        51.2188    8.1384    4.7622 O.3         1 LGB      -0.3892
     19 C19        56.1340   -1.4795    2.6736 C.1         1 LGB       0.0860
     20 N20        56.3080   -2.5839    2.4298 N.1         1 LGB      -0.3388
     21 C21        50.3798    4.2230    4.8899 C.3         1 LGB       0.4246
     22 F22        49.4160    5.2005    4.8371 F           1 LGB      -0.1673
     23 F23        50.6660    3.9480    6.2067 F           1 LGB      -0.1673
     24 F24        49.8610    3.0824    4.3277 F           1 LGB      -0.1673
     25 H1         54.8657    6.5746    2.8976 H           1 LGB       0.0541
     26 H2         55.3119    6.9124    4.5939 H           1 LGB       0.0541
     27 H3         52.2643    6.0194    5.7275 H           1 LGB       0.0637
     28 H4         51.6593    7.1811    2.9756 H           1 LGB       0.0619
     29 H5         53.6006    8.5581    3.0116 H           1 LGB       0.0312
     30 H6         53.6687    8.5527    4.7872 H           1 LGB       0.0312
     31 H7         51.3647    4.7971    3.0553 H           1 LGB       0.0794
     32 H8         54.1813   -0.0975    1.7435 H           1 LGB       0.0636
     33 H9         53.7020    2.1825    2.2168 H           1 LGB       0.0538
     34 H10        57.0933    3.6989    5.1535 H           1 LGB       0.0378
     35 H11        58.4166    2.6888    4.5817 H           1 LGB       0.0378
     36 H12        57.4370    2.1840    5.9754 H           1 LGB       0.0378
     37 H13        50.5595    7.5571    5.2010 H           1 LGB       0.2099
@<TRIPOS>BOND
     1     1     2   1
     2     1     5   1
     3     2     3   1
     4     2     6   1
     5     3     4   1
     6     3     8   1
     7     4     5   1
     8     4    18   1
     9     6     7   1
    10     6     9   2
    11     7     8   1
    12     8    21   1
    13     9    10   1
    14    10    11  ar
    15    10    15  ar
    16    11    12  ar
    17    11    16   1
    18    12    13  ar
    19    12    17   1
    20    13    14  ar
    21    13    19   1
    22    14    15  ar
    23    19    20   3
    24    21    22   1
    25    21    23   1
    26    21    24   1
    27     1    25   1
    28     1    26   1
    29     3    27   1
    30     4    28   1
    31     5    29   1
    32     5    30   1
    33     8    31   1
    34    14    32   1
    35    15    33   1
    36    16    34   1
    37    16    35   1
    38    16    36   1
    39    18    37   1
@<TRIPOS>SUBSTRUCTURE
     1  LGB      1

