@<TRIPOS>MOLECULE
3g0w_ligand_027
    37    39
SMALL
GAST_HUCK
****
This file was generated by PARSER (from files_GN.cpp)

@<TRIPOS>ATOM
      1 C1         58.3821    2.8831    5.5842 C.3         1 LGB       0.0449
      2 N2         57.8960    1.7639    4.8560 N.pl3       1 LGB      -0.2354
      3 C3         58.7054    0.6302    4.8521 C.3         1 LGB       0.1199
      4 C4         59.5712    0.8228    6.1096 C.3         1 LGB       0.0850
      5 C5         59.6940    2.3583    6.1919 C.3         1 LGB      -0.0025
      6 C6         56.6394    1.4721    4.4884 C.2         1 LGB       0.2667
      7 O7         56.4660    0.1502    4.2627 O.3         1 LGB      -0.2358
      8 C8         57.6396   -0.4885    4.7876 C.3         1 LGB       0.2188
      9 N9         55.6778    2.4056    4.4155 N.2         1 LGB      -0.2946
     10 C10        54.3720    2.5570    4.0794 C.ar        1 LGB       0.0001
     11 C11        53.5829    1.8200    3.1436 C.ar        1 LGB      -0.0192
     12 C12        52.2112    2.1899    2.9671 C.ar        1 LGB       0.0660
     13 C13        51.6550    3.2590    3.7214 C.ar        1 LGB       0.0905
     14 C14        52.4607    3.9777    4.6186 C.ar        1 LGB      -0.0438
     15 C15        53.8024    3.6426    4.7738 C.ar        1 LGB      -0.0559
     16 C16        54.1874    0.6933    2.3643 C.3         1 LGB      -0.0320
     17 CL17       51.1897    1.3438    1.8931 Cl          1 LGB      -0.0696
     18 O18        60.8353    0.1797    5.9827 O.3         1 LGB      -0.3892
     19 C19        50.4039    3.6316    3.6417 C.1         1 LGB       0.0860
     20 N20        49.3111    3.9812    3.5948 N.1         1 LGB      -0.3388
     21 C21        58.0149   -1.7089    3.9067 C.3         1 LGB       0.4246
     22 F22        59.1574   -2.3176    4.3704 F           1 LGB      -0.1673
     23 F23        58.2102   -1.3364    2.5975 F           1 LGB      -0.1673
     24 F24        56.9995   -2.6353    3.9259 F           1 LGB      -0.1673
     25 H1         57.6879    3.1590    6.3839 H           1 LGB       0.0541
     26 H2         58.5499    3.7324    4.9253 H           1 LGB       0.0541
     27 H3         59.3117    0.6669    3.9426 H           1 LGB       0.0637
     28 H4         59.0602    0.4422    6.9990 H           1 LGB       0.0619
     29 H5         59.8131    2.6910    7.2240 H           1 LGB       0.0312
     30 H6         60.5454    2.7026    5.6005 H           1 LGB       0.0312
     31 H7         57.4140   -0.8384    5.8027 H           1 LGB       0.0794
     32 H8         52.0901    4.7520    5.1717 H           1 LGB       0.0636
     33 H9         54.3601    4.1954    5.4293 H           1 LGB       0.0538
     34 H10        55.1251    0.9794    1.8854 H           1 LGB       0.0378
     35 H11        53.5551    0.3294    1.5608 H           1 LGB       0.0378
     36 H12        54.3475   -0.1497    3.0344 H           1 LGB       0.0378
     37 H13        61.3305    0.4289    6.7901 H           1 LGB       0.2099
@<TRIPOS>BOND
     1     1     2   1
     2     1     5   1
     3     2     3   1
     4     2     6   1
     5     3     4   1
     6     3     8   1
     7     4     5   1
     8     4    18   1
     9     6     7   1
    10     6     9   2
    11     7     8   1
    12     8    21   1
    13     9    10   1
    14    10    11  ar
    15    10    15  ar
    16    11    12  ar
    17    11    16   1
    18    12    13  ar
    19    12    17   1
    20    13    14  ar
    21    13    19   1
    22    14    15  ar
    23    19    20   3
    24    21    22   1
    25    21    23   1
    26    21    24   1
    27     1    25   1
    28     1    26   1
    29     3    27   1
    30     4    28   1
    31     5    29   1
    32     5    30   1
    33     8    31   1
    34    14    32   1
    35    15    33   1
    36    16    34   1
    37    16    35   1
    38    16    36   1
    39    18    37   1
@<TRIPOS>SUBSTRUCTURE
     1  LGB      1

