@<TRIPOS>MOLECULE
3g0w_ligand_028
    37    39
SMALL
GAST_HUCK
****
This file was generated by PARSER (from files_GN.cpp)

@<TRIPOS>ATOM
      1 C1         52.0821    2.5097    2.7548 C.3         1 LGB       0.0449
      2 N2         52.8471    1.8237    3.7337 N.pl3       1 LGB      -0.2354
      3 C3         52.9337    0.4361    3.5494 C.3         1 LGB       0.1199
      4 C4         52.4523    0.1778    2.0975 C.3         1 LGB       0.0850
      5 C5         52.1077    1.5691    1.5368 C.3         1 LGB      -0.0025
      6 C6         53.9146    2.2703    4.4312 C.2         1 LGB       0.2667
      7 O7         54.7353    1.2606    4.8064 O.3         1 LGB      -0.2358
      8 C8         54.4329    0.2219    3.8669 C.3         1 LGB       0.2188
      9 N9         54.3925    3.5132    4.6497 N.2         1 LGB      -0.2946
     10 C10        54.0849    4.8242    4.4994 C.ar        1 LGB       0.0001
     11 C11        52.8053    5.4333    4.6520 C.ar        1 LGB      -0.0192
     12 C12        52.6581    6.8216    4.3451 C.ar        1 LGB       0.0660
     13 C13        53.7903    7.6010    3.9801 C.ar        1 LGB       0.0905
     14 C14        55.0630    7.0034    3.9691 C.ar        1 LGB      -0.0438
     15 C15        55.2046    5.6335    4.2132 C.ar        1 LGB      -0.0559
     16 C16        51.6531    4.6652    5.1977 C.3         1 LGB      -0.0320
     17 CL17       51.1278    7.5679    4.4507 Cl          1 LGB      -0.0696
     18 O18        51.3049   -0.6754    2.0594 O.3         1 LGB      -0.3892
     19 C19        53.7219    8.8588    3.6249 C.1         1 LGB       0.0860
     20 N20        53.6898    9.9541    3.2807 N.1         1 LGB      -0.3388
     21 C21        54.7890   -1.1485    4.4812 C.3         1 LGB       0.4246
     22 F22        54.4322   -2.1850    3.6503 F           1 LGB      -0.1673
     23 F23        54.1679   -1.3312    5.6983 F           1 LGB      -0.1673
     24 F24        56.1518   -1.2114    4.6779 F           1 LGB      -0.1673
     25 H1         52.5074    3.4855    2.5040 H           1 LGB       0.0541
     26 H2         51.0570    2.6280    3.1155 H           1 LGB       0.0541
     27 H3         52.2933   -0.0669    4.2773 H           1 LGB       0.0637
     28 H4         53.2340   -0.2828    1.4866 H           1 LGB       0.0619
     29 H5         52.8813    1.8956    0.8377 H           1 LGB       0.0312
     30 H6         51.1381    1.5734    1.0234 H           1 LGB       0.0312
     31 H7         55.0381    0.3723    2.9649 H           1 LGB       0.0794
     32 H8         55.9057    7.5490    3.7655 H           1 LGB       0.0636
     33 H9         56.1401    5.2220    4.1615 H           1 LGB       0.0538
     34 H10        51.9067    3.6618    5.5149 H           1 LGB       0.0378
     35 H11        50.8596    4.5974    4.4537 H           1 LGB       0.0378
     36 H12        51.2485    5.1649    6.0744 H           1 LGB       0.0378
     37 H13        51.6415   -1.5489    2.3469 H           1 LGB       0.2099
@<TRIPOS>BOND
     1     1     2   1
     2     1     5   1
     3     2     3   1
     4     2     6   1
     5     3     4   1
     6     3     8   1
     7     4     5   1
     8     4    18   1
     9     6     7   1
    10     6     9   2
    11     7     8   1
    12     8    21   1
    13     9    10   1
    14    10    11  ar
    15    10    15  ar
    16    11    12  ar
    17    11    16   1
    18    12    13  ar
    19    12    17   1
    20    13    14  ar
    21    13    19   1
    22    14    15  ar
    23    19    20   3
    24    21    22   1
    25    21    23   1
    26    21    24   1
    27     1    25   1
    28     1    26   1
    29     3    27   1
    30     4    28   1
    31     5    29   1
    32     5    30   1
    33     8    31   1
    34    14    32   1
    35    15    33   1
    36    16    34   1
    37    16    35   1
    38    16    36   1
    39    18    37   1
@<TRIPOS>SUBSTRUCTURE
     1  LGB      1

