@<TRIPOS>MOLECULE
3g0w_ligand_051
    37    39
SMALL
GAST_HUCK
****
This file was generated by PARSER (from files_GN.cpp)

@<TRIPOS>ATOM
      1 C1         55.4041   -1.1395    3.1327 C.3         1 LGB       0.0449
      2 N2         55.9413    0.0973    3.6149 N.pl3       1 LGB      -0.2354
      3 C3         57.2018   -0.0084    4.2129 C.3         1 LGB       0.1199
      4 C4         57.8467   -1.1942    3.4611 C.3         1 LGB       0.0850
      5 C5         56.6372   -2.0783    3.0718 C.3         1 LGB      -0.0025
      6 C6         55.6646    1.3797    3.2914 C.2         1 LGB       0.2667
      7 O7         56.6407    2.2443    3.6791 O.3         1 LGB      -0.2358
      8 C8         57.7759    1.4200    4.0053 C.3         1 LGB       0.2188
      9 N9         54.6051    1.8927    2.6287 N.2         1 LGB      -0.2946
     10 C10        53.4527    1.3024    2.2069 C.ar        1 LGB       0.0001
     11 C11        52.5469    0.5834    3.0408 C.ar        1 LGB      -0.0192
     12 C12        51.4563   -0.1017    2.4290 C.ar        1 LGB       0.0660
     13 C13        51.2495   -0.0222    1.0265 C.ar        1 LGB       0.0905
     14 C14        52.0822    0.7942    0.2386 C.ar        1 LGB      -0.0438
     15 C15        53.1584    1.4639    0.8344 C.ar        1 LGB      -0.0559
     16 C16        52.6747    0.6149    4.5292 C.3         1 LGB      -0.0320
     17 CL17       50.3598   -1.0036    3.3772 Cl          1 LGB      -0.0696
     18 O18        58.7958   -1.8794    4.2801 O.3         1 LGB      -0.3892
     19 C19        50.3150   -0.7001    0.4220 C.1         1 LGB       0.0860
     20 N20        49.4923   -1.3076   -0.1001 N.1         1 LGB      -0.3388
     21 C21        58.5345    2.0161    5.2192 C.3         1 LGB       0.4246
     22 F22        59.6235    1.2376    5.5375 F           1 LGB      -0.1673
     23 F23        57.7158    2.1135    6.3165 F           1 LGB      -0.1673
     24 F24        59.0001    3.2770    4.9301 F           1 LGB      -0.1673
     25 H1         54.9332   -1.0358    2.1474 H           1 LGB       0.0541
     26 H2         54.6648   -1.5300    3.8464 H           1 LGB       0.0541
     27 H3         57.0631   -0.2473    5.2749 H           1 LGB       0.0637
     28 H4         58.3542   -0.8474    2.5528 H           1 LGB       0.0619
     29 H5         56.7606   -2.5022    2.0706 H           1 LGB       0.0312
     30 H6         56.5262   -2.8971    3.7837 H           1 LGB       0.0312
     31 H7         58.4496    1.4341    3.1430 H           1 LGB       0.0794
     32 H8         51.9261    0.9079   -0.7718 H           1 LGB       0.0636
     33 H9         53.7542    2.0448    0.2458 H           1 LGB       0.0538
     34 H10        53.5396    1.1758    4.8729 H           1 LGB       0.0378
     35 H11        52.7573   -0.3982    4.9268 H           1 LGB       0.0378
     36 H12        51.7916    1.0857    4.9575 H           1 LGB       0.0378
     37 H13        59.1451   -2.6028    3.7214 H           1 LGB       0.2099
@<TRIPOS>BOND
     1     1     2   1
     2     1     5   1
     3     2     3   1
     4     2     6   1
     5     3     4   1
     6     3     8   1
     7     4     5   1
     8     4    18   1
     9     6     7   1
    10     6     9   2
    11     7     8   1
    12     8    21   1
    13     9    10   1
    14    10    11  ar
    15    10    15  ar
    16    11    12  ar
    17    11    16   1
    18    12    13  ar
    19    12    17   1
    20    13    14  ar
    21    13    19   1
    22    14    15  ar
    23    19    20   3
    24    21    22   1
    25    21    23   1
    26    21    24   1
    27     1    25   1
    28     1    26   1
    29     3    27   1
    30     4    28   1
    31     5    29   1
    32     5    30   1
    33     8    31   1
    34    14    32   1
    35    15    33   1
    36    16    34   1
    37    16    35   1
    38    16    36   1
    39    18    37   1
@<TRIPOS>SUBSTRUCTURE
     1  LGB      1

