@<TRIPOS>MOLECULE
3g0w_ligand_008
    37    39
SMALL
GAST_HUCK
****
This file was generated by PARSER (from files_GN.cpp)

@<TRIPOS>ATOM
      1 C1         56.9360    2.4225    3.7998 C.3         1 LGB       0.0449
      2 N2         55.7597    1.6556    3.9730 N.pl3       1 LGB      -0.2354
      3 C3         55.9216    0.2798    3.7774 C.3         1 LGB       0.1199
      4 C4         57.4234    0.0522    4.0370 C.3         1 LGB       0.0850
      5 C5         58.0288    1.3726    3.5200 C.3         1 LGB      -0.0025
      6 C6         54.5686    1.9366    4.5338 C.2         1 LGB       0.2667
      7 O7         53.8963    0.7990    4.8689 O.3         1 LGB      -0.2358
      8 C8         54.8514   -0.2733    4.7422 C.3         1 LGB       0.2188
      9 N9         53.9132    3.1064    4.7083 N.2         1 LGB      -0.2946
     10 C10        53.8808    4.4645    4.5887 C.ar        1 LGB       0.0001
     11 C11        52.6235    5.1361    4.6328 C.ar        1 LGB      -0.0192
     12 C12        52.5713    6.5391    4.3717 C.ar        1 LGB       0.0660
     13 C13        53.7603    7.2586    4.0817 C.ar        1 LGB       0.0905
     14 C14        54.9993    6.5944    4.1272 C.ar        1 LGB      -0.0438
     15 C15        55.0522    5.2189    4.3816 C.ar        1 LGB      -0.0559
     16 C16        51.3559    4.3937    4.9118 C.3         1 LGB      -0.0320
     17 CL17       51.0810    7.3706    4.3899 Cl          1 LGB      -0.0696
     18 O18        57.9353   -1.0848    3.3456 O.3         1 LGB      -0.3892
     19 C19        53.7608    8.5151    3.7169 C.1         1 LGB       0.0860
     20 N20        53.7672    9.6051    3.3539 N.1         1 LGB      -0.3388
     21 C21        54.1511   -1.5633    4.2457 C.3         1 LGB       0.4246
     22 F22        55.0610   -2.5353    3.9055 F           1 LGB      -0.1673
     23 F23        53.3727   -1.3004    3.1451 F           1 LGB      -0.1673
     24 F24        53.3419   -2.0659    5.2335 F           1 LGB      -0.1673
     25 H1         57.1833    2.9455    4.7270 H           1 LGB       0.0541
     26 H2         56.8205    3.1216    2.9700 H           1 LGB       0.0541
     27 H3         55.6765    0.0523    2.7329 H           1 LGB       0.0637
     28 H4         57.6248   -0.0557    5.1068 H           1 LGB       0.0619
     29 H5         58.9584    1.6186    4.0383 H           1 LGB       0.0312
     30 H6         58.2235    1.3047    2.4461 H           1 LGB       0.0312
     31 H7         55.2977   -0.4580    5.7254 H           1 LGB       0.0794
     32 H8         55.8791    7.0952    3.9621 H           1 LGB       0.0636
     33 H9         55.9655    4.7900    4.4237 H           1 LGB       0.0538
     34 H10        51.4983    3.3323    5.1129 H           1 LGB       0.0378
     35 H11        50.6862    4.4773    4.0540 H           1 LGB       0.0378
     36 H12        50.8654    4.8219    5.7876 H           1 LGB       0.0378
     37 H13        58.9044   -0.9345    3.3106 H           1 LGB       0.2099
@<TRIPOS>BOND
     1     1     2   1
     2     1     5   1
     3     2     3   1
     4     2     6   1
     5     3     4   1
     6     3     8   1
     7     4     5   1
     8     4    18   1
     9     6     7   1
    10     6     9   2
    11     7     8   1
    12     8    21   1
    13     9    10   1
    14    10    11  ar
    15    10    15  ar
    16    11    12  ar
    17    11    16   1
    18    12    13  ar
    19    12    17   1
    20    13    14  ar
    21    13    19   1
    22    14    15  ar
    23    19    20   3
    24    21    22   1
    25    21    23   1
    26    21    24   1
    27     1    25   1
    28     1    26   1
    29     3    27   1
    30     4    28   1
    31     5    29   1
    32     5    30   1
    33     8    31   1
    34    14    32   1
    35    15    33   1
    36    16    34   1
    37    16    35   1
    38    16    36   1
    39    18    37   1
@<TRIPOS>SUBSTRUCTURE
     1  LGB      1

