@<TRIPOS>MOLECULE
3g0w_ligand_040
    37    39
SMALL
GAST_HUCK
****
This file was generated by PARSER (from files_GN.cpp)

@<TRIPOS>ATOM
      1 C1         52.3842    1.1034    3.5841 C.3         1 LGB       0.0449
      2 N2         53.6337    1.5840    4.0673 N.pl3       1 LGB      -0.2354
      3 C3         54.7108    0.6969    3.9475 C.3         1 LGB       0.1199
      4 C4         54.2314   -0.3561    2.9211 C.3         1 LGB       0.0850
      5 C5         52.8429    0.1524    2.4649 C.3         1 LGB      -0.0025
      6 C6         54.0681    2.8491    4.1629 C.2         1 LGB       0.2667
      7 O7         55.4260    2.9344    4.1464 O.3         1 LGB      -0.2358
      8 C8         55.8355    1.6889    3.5527 C.3         1 LGB       0.2188
      9 N9         53.2168    3.8994    4.2114 N.2         1 LGB      -0.2946
     10 C10        53.3120    5.2541    4.2641 C.ar        1 LGB       0.0001
     11 C11        52.1237    6.0308    4.4148 C.ar        1 LGB      -0.0192
     12 C12        52.2279    7.4517    4.4705 C.ar        1 LGB       0.0660
     13 C13        53.4820    8.0804    4.2938 C.ar        1 LGB       0.0905
     14 C14        54.6469    7.2901    4.1962 C.ar        1 LGB      -0.0438
     15 C15        54.5646    5.8946    4.1857 C.ar        1 LGB      -0.0559
     16 C16        50.7803    5.3878    4.5275 C.3         1 LGB      -0.0320
     17 CL17       50.8581    8.4052    4.8076 Cl          1 LGB      -0.0696
     18 O18        54.1219   -1.6397    3.5370 O.3         1 LGB      -0.3892
     19 C19        53.6028    9.3753    4.1692 C.1         1 LGB       0.0860
     20 N20        53.7131   10.5151    4.0469 N.1         1 LGB      -0.3388
     21 C21        57.2517    1.2798    4.0268 C.3         1 LGB       0.4246
     22 F22        57.6024    0.0490    3.5186 F           1 LGB      -0.1673
     23 F23        57.3304    1.2222    5.3999 F           1 LGB      -0.1673
     24 F24        58.1851    2.1917    3.5917 F           1 LGB      -0.1673
     25 H1         51.7348    1.8875    3.1949 H           1 LGB       0.0541
     26 H2         51.8677    0.5563    4.3732 H           1 LGB       0.0541
     27 H3         54.9033    0.2458    4.9265 H           1 LGB       0.0637
     28 H4         54.9111   -0.4418    2.0677 H           1 LGB       0.0619
     29 H5         52.9438    0.7143    1.5303 H           1 LGB       0.0312
     30 H6         52.1210   -0.6508    2.3054 H           1 LGB       0.0312
     31 H7         55.8549    1.8154    2.4632 H           1 LGB       0.0794
     32 H8         55.5702    7.7221    4.1024 H           1 LGB       0.0636
     33 H9         55.4331    5.3750    4.0956 H           1 LGB       0.0538
     34 H10        50.7999    4.2975    4.5149 H           1 LGB       0.0378
     35 H11        50.1487    5.7221    3.7062 H           1 LGB       0.0378
     36 H12        50.3320    5.6960    5.4661 H           1 LGB       0.0378
     37 H13        55.0394   -1.9990    3.5468 H           1 LGB       0.2099
@<TRIPOS>BOND
     1     1     2   1
     2     1     5   1
     3     2     3   1
     4     2     6   1
     5     3     4   1
     6     3     8   1
     7     4     5   1
     8     4    18   1
     9     6     7   1
    10     6     9   2
    11     7     8   1
    12     8    21   1
    13     9    10   1
    14    10    11  ar
    15    10    15  ar
    16    11    12  ar
    17    11    16   1
    18    12    13  ar
    19    12    17   1
    20    13    14  ar
    21    13    19   1
    22    14    15  ar
    23    19    20   3
    24    21    22   1
    25    21    23   1
    26    21    24   1
    27     1    25   1
    28     1    26   1
    29     3    27   1
    30     4    28   1
    31     5    29   1
    32     5    30   1
    33     8    31   1
    34    14    32   1
    35    15    33   1
    36    16    34   1
    37    16    35   1
    38    16    36   1
    39    18    37   1
@<TRIPOS>SUBSTRUCTURE
     1  LGB      1

