@<TRIPOS>MOLECULE
3g0w_ligand_007
    37    39
SMALL
GAST_HUCK
****
This file was generated by PARSER (from files_GN.cpp)

@<TRIPOS>ATOM
      1 C1         55.6561    3.9057    4.0423 C.3         1 LGB       0.0449
      2 N2         54.3326    3.6267    4.4794 N.pl3       1 LGB      -0.2354
      3 C3         53.4426    4.7100    4.3982 C.3         1 LGB       0.1199
      4 C4         54.1225    5.7450    3.4692 C.3         1 LGB       0.0850
      5 C5         55.4827    5.1086    3.0936 C.3         1 LGB      -0.0025
      6 C6         53.6487    2.4635    4.4850 C.2         1 LGB       0.2667
      7 O7         52.3028    2.6641    4.4465 O.3         1 LGB      -0.2358
      8 C8         52.1663    3.9874    3.9062 C.3         1 LGB       0.2188
      9 N9         54.0703    1.1847    4.3828 N.2         1 LGB      -0.2946
     10 C10        55.2240    0.4692    4.3675 C.ar        1 LGB       0.0001
     11 C11        56.3445    0.6234    5.2345 C.ar        1 LGB      -0.0192
     12 C12        57.4962   -0.1994    5.0299 C.ar        1 LGB       0.0660
     13 C13        57.4841   -1.2095    4.0325 C.ar        1 LGB       0.0905
     14 C14        56.3428   -1.3832    3.2263 C.ar        1 LGB      -0.0438
     15 C15        55.2291   -0.5525    3.3965 C.ar        1 LGB      -0.0559
     16 C16        56.3083    1.5559    6.3953 C.3         1 LGB      -0.0320
     17 CL17       58.8919    0.0061    5.9974 Cl          1 LGB      -0.0696
     18 O18        54.2882    6.9872    4.1505 O.3         1 LGB      -0.3892
     19 C19        58.4676   -2.0561    3.8575 C.1         1 LGB       0.0860
     20 N20        59.3048   -2.8295    3.7051 N.1         1 LGB      -0.3388
     21 C21        50.8248    4.6359    4.3350 C.3         1 LGB       0.4246
     22 F22        50.7064    5.9002    3.8100 F           1 LGB      -0.1673
     23 F23        50.7128    4.7128    5.7001 F           1 LGB      -0.1673
     24 F24        49.7719    3.8876    3.8716 F           1 LGB      -0.1673
     25 H1         56.1293    3.0667    3.5256 H           1 LGB       0.0541
     26 H2         56.2631    4.1966    4.9026 H           1 LGB       0.0541
     27 H3         53.2932    5.1142    5.4038 H           1 LGB       0.0637
     28 H4         53.5262    5.9285    2.5716 H           1 LGB       0.0619
     29 H5         55.4538    4.7553    2.0588 H           1 LGB       0.0312
     30 H6         56.3116    5.8160    3.1952 H           1 LGB       0.0312
     31 H7         52.1793    3.9097    2.8117 H           1 LGB       0.0794
     32 H8         56.3015   -2.1157    2.5082 H           1 LGB       0.0636
     33 H9         54.4169   -0.6986    2.7879 H           1 LGB       0.0538
     34 H10        55.3387    2.0214    6.5503 H           1 LGB       0.0378
     35 H11        57.0533    2.3439    6.2564 H           1 LGB       0.0378
     36 H12        56.5459    1.0135    7.3149 H           1 LGB       0.0378
     37 H13        54.4233    7.6540    3.4473 H           1 LGB       0.2099
@<TRIPOS>BOND
     1     1     2   1
     2     1     5   1
     3     2     3   1
     4     2     6   1
     5     3     4   1
     6     3     8   1
     7     4     5   1
     8     4    18   1
     9     6     7   1
    10     6     9   2
    11     7     8   1
    12     8    21   1
    13     9    10   1
    14    10    11  ar
    15    10    15  ar
    16    11    12  ar
    17    11    16   1
    18    12    13  ar
    19    12    17   1
    20    13    14  ar
    21    13    19   1
    22    14    15  ar
    23    19    20   3
    24    21    22   1
    25    21    23   1
    26    21    24   1
    27     1    25   1
    28     1    26   1
    29     3    27   1
    30     4    28   1
    31     5    29   1
    32     5    30   1
    33     8    31   1
    34    14    32   1
    35    15    33   1
    36    16    34   1
    37    16    35   1
    38    16    36   1
    39    18    37   1
@<TRIPOS>SUBSTRUCTURE
     1  LGB      1

