@<TRIPOS>MOLECULE
3g0w_ligand_010
    37    39
SMALL
GAST_HUCK
****
This file was generated by PARSER (from files_GN.cpp)

@<TRIPOS>ATOM
      1 C1         53.1212    0.8362    4.0287 C.3         1 LGB       0.0449
      2 N2         54.4084    0.9999    4.6125 N.pl3       1 LGB      -0.2354
      3 C3         55.1626   -0.1904    4.6291 C.3         1 LGB       0.1199
      4 C4         54.5357   -1.0709    3.5172 C.3         1 LGB       0.0850
      5 C5         53.4119   -0.1891    2.9253 C.3         1 LGB      -0.0025
      6 C6         55.2154    2.0783    4.6991 C.2         1 LGB       0.2667
      7 O7         56.5195    1.7222    4.8535 O.3         1 LGB      -0.2358
      8 C8         56.5941    0.3610    4.4182 C.3         1 LGB       0.2188
      9 N9         54.9843    3.4035    4.6144 N.2         1 LGB      -0.2946
     10 C10        54.0002    4.3358    4.5713 C.ar        1 LGB       0.0001
     11 C11        54.3122    5.6588    4.1430 C.ar        1 LGB      -0.0192
     12 C12        53.3086    6.6704    4.2187 C.ar        1 LGB       0.0660
     13 C13        52.0267    6.3554    4.7336 C.ar        1 LGB       0.0905
     14 C14        51.7367    5.0417    5.1482 C.ar        1 LGB      -0.0438
     15 C15        52.7259    4.0520    5.0978 C.ar        1 LGB      -0.0559
     16 C16        55.6658    6.0218    3.6197 C.3         1 LGB      -0.0320
     17 CL17       53.6422    8.2800    3.7304 Cl          1 LGB      -0.0696
     18 O18        54.0318   -2.2933    4.0589 O.3         1 LGB      -0.3892
     19 C19        51.0881    7.2547    4.8673 C.1         1 LGB       0.0860
     20 N20        50.2782    8.0599    4.9919 N.1         1 LGB      -0.3388
     21 C21        57.7032   -0.3979    5.1850 C.3         1 LGB       0.4246
     22 F22        57.8035   -1.6883    4.7320 F           1 LGB      -0.1673
     23 F23        57.4686   -0.4137    6.5379 F           1 LGB      -0.1673
     24 F24        58.9178    0.2140    4.9842 F           1 LGB      -0.1673
     25 H1         52.7019    1.7399    3.5860 H           1 LGB       0.0541
     26 H2         52.4304    0.4214    4.7715 H           1 LGB       0.0541
     27 H3         55.0495   -0.6495    5.6161 H           1 LGB       0.0637
     28 H4         55.2488   -1.3210    2.7299 H           1 LGB       0.0619
     29 H5         53.7806    0.3496    2.0454 H           1 LGB       0.0312
     30 H6         52.5184   -0.7503    2.6439 H           1 LGB       0.0312
     31 H7         56.8406    0.3654    3.3492 H           1 LGB       0.0794
     32 H8         50.8250    4.7916    5.5404 H           1 LGB       0.0636
     33 H9         52.5168    3.1398    5.4965 H           1 LGB       0.0538
     34 H10        56.3808    5.2010    3.6349 H           1 LGB       0.0378
     35 H11        56.0910    6.8316    4.2189 H           1 LGB       0.0378
     36 H12        55.5827    6.3565    2.5854 H           1 LGB       0.0378
     37 H13        53.5017   -2.0432    4.8433 H           1 LGB       0.2099
@<TRIPOS>BOND
     1     1     2   1
     2     1     5   1
     3     2     3   1
     4     2     6   1
     5     3     4   1
     6     3     8   1
     7     4     5   1
     8     4    18   1
     9     6     7   1
    10     6     9   2
    11     7     8   1
    12     8    21   1
    13     9    10   1
    14    10    11  ar
    15    10    15  ar
    16    11    12  ar
    17    11    16   1
    18    12    13  ar
    19    12    17   1
    20    13    14  ar
    21    13    19   1
    22    14    15  ar
    23    19    20   3
    24    21    22   1
    25    21    23   1
    26    21    24   1
    27     1    25   1
    28     1    26   1
    29     3    27   1
    30     4    28   1
    31     5    29   1
    32     5    30   1
    33     8    31   1
    34    14    32   1
    35    15    33   1
    36    16    34   1
    37    16    35   1
    38    16    36   1
    39    18    37   1
@<TRIPOS>SUBSTRUCTURE
     1  LGB      1

