@<TRIPOS>MOLECULE
3g0w_ligand_006
    37    39
SMALL
GAST_HUCK
****
This file was generated by PARSER (from files_GN.cpp)

@<TRIPOS>ATOM
      1 C1         57.2127    2.9970    5.5273 C.3         1 LGB       0.0449
      2 N2         57.0102    1.9253    4.6101 N.pl3       1 LGB      -0.2354
      3 C3         58.0278    0.9574    4.6055 C.3         1 LGB       0.1199
      4 C4         58.7380    1.1596    5.9614 C.3         1 LGB       0.0850
      5 C5         58.5775    2.6763    6.1775 C.3         1 LGB      -0.0025
      6 C6         55.8789    1.4256    4.0683 C.2         1 LGB       0.2667
      7 O7         56.0392    0.1372    3.6651 O.3         1 LGB      -0.2358
      8 C8         57.2063   -0.3286    4.3612 C.3         1 LGB       0.2188
      9 N9         54.6364    1.9419    3.9339 N.2         1 LGB      -0.2946
     10 C10        53.9849    3.1238    4.0961 C.ar        1 LGB       0.0001
     11 C11        52.5830    3.1469    4.3717 C.ar        1 LGB      -0.0192
     12 C12        51.9204    4.4018    4.5467 C.ar        1 LGB       0.0660
     13 C13        52.6585    5.6125    4.4453 C.ar        1 LGB       0.0905
     14 C14        54.0272    5.5704    4.1029 C.ar        1 LGB      -0.0438
     15 C15        54.6685    4.3433    3.9089 C.ar        1 LGB      -0.0559
     16 C16        51.7954    1.8811    4.4791 C.3         1 LGB      -0.0320
     17 CL17       50.2449    4.4643    4.8873 Cl          1 LGB      -0.0696
     18 O18        60.1071    0.7565    5.9312 O.3         1 LGB      -0.3892
     19 C19        52.1120    6.7858    4.6325 C.1         1 LGB       0.0860
     20 N20        51.6315    7.8128    4.7834 N.1         1 LGB      -0.3388
     21 C21        57.9169   -1.4394    3.5523 C.3         1 LGB       0.4246
     22 F22        59.0645   -1.8469    4.1867 F           1 LGB      -0.1673
     23 F23        58.2441   -1.0172    2.2877 F           1 LGB      -0.1673
     24 F24        57.0940   -2.5342    3.4253 F           1 LGB      -0.1673
     25 H1         56.4204    3.0161    6.2780 H           1 LGB       0.0541
     26 H2         57.2787    3.9683    5.0211 H           1 LGB       0.0541
     27 H3         58.6991    1.1815    3.7693 H           1 LGB       0.0637
     28 H4         58.2274    0.6180    6.7651 H           1 LGB       0.0619
     29 H5         58.6079    2.9407    7.2373 H           1 LGB       0.0312
     30 H6         59.3764    3.2178    5.6517 H           1 LGB       0.0312
     31 H7         56.8870   -0.7521    5.3193 H           1 LGB       0.0794
     32 H8         54.5756    6.4321    3.9898 H           1 LGB       0.0636
     33 H9         55.6373    4.3452    3.5881 H           1 LGB       0.0538
     34 H10        52.3849    0.9757    4.3437 H           1 LGB       0.0378
     35 H11        51.0077    1.8698    3.7215 H           1 LGB       0.0378
     36 H12        51.3330    1.8229    5.4657 H           1 LGB       0.0378
     37 H13        60.5323    1.2284    6.6791 H           1 LGB       0.2099
@<TRIPOS>BOND
     1     1     2   1
     2     1     5   1
     3     2     3   1
     4     2     6   1
     5     3     4   1
     6     3     8   1
     7     4     5   1
     8     4    18   1
     9     6     7   1
    10     6     9   2
    11     7     8   1
    12     8    21   1
    13     9    10   1
    14    10    11  ar
    15    10    15  ar
    16    11    12  ar
    17    11    16   1
    18    12    13  ar
    19    12    17   1
    20    13    14  ar
    21    13    19   1
    22    14    15  ar
    23    19    20   3
    24    21    22   1
    25    21    23   1
    26    21    24   1
    27     1    25   1
    28     1    26   1
    29     3    27   1
    30     4    28   1
    31     5    29   1
    32     5    30   1
    33     8    31   1
    34    14    32   1
    35    15    33   1
    36    16    34   1
    37    16    35   1
    38    16    36   1
    39    18    37   1
@<TRIPOS>SUBSTRUCTURE
     1  LGB      1

