@<TRIPOS>MOLECULE
3g0w_ligand_012
    37    39
SMALL
GAST_HUCK
****
This file was generated by PARSER (from files_GN.cpp)

@<TRIPOS>ATOM
      1 C1         53.1020    2.8471    4.9585 C.3         1 LGB       0.0449
      2 N2         53.4493    4.0625    4.3002 N.pl3       1 LGB      -0.2354
      3 C3         52.3703    4.8694    3.9135 C.3         1 LGB       0.1199
      4 C4         51.2005    4.3621    4.7820 C.3         1 LGB       0.0850
      5 C5         51.5581    2.8744    4.9825 C.3         1 LGB      -0.0025
      6 C6         54.5734    4.7980    4.4058 C.2         1 LGB       0.2667
      7 O7         54.3718    6.1105    4.1127 O.3         1 LGB      -0.2358
      8 C8         52.9454    6.2862    4.1599 C.3         1 LGB       0.2188
      9 N9         55.8086    4.4307    4.8040 N.2         1 LGB      -0.2946
     10 C10        56.4256    3.2468    5.0607 C.ar        1 LGB       0.0001
     11 C11        56.5065    2.1413    4.1615 C.ar        1 LGB      -0.0192
     12 C12        57.2650    0.9933    4.5427 C.ar        1 LGB       0.0660
     13 C13        57.9887    0.9926    5.7661 C.ar        1 LGB       0.0905
     14 C14        57.9151    2.1047    6.6276 C.ar        1 LGB      -0.0438
     15 C15        57.1356    3.2133    6.2778 C.ar        1 LGB      -0.0559
     16 C16        55.9057    2.1972    2.7976 C.3         1 LGB      -0.0320
     17 CL17       57.3475   -0.3768    3.5200 Cl          1 LGB      -0.0696
     18 O18        49.9424    4.5489    4.1376 O.3         1 LGB      -0.3892
     19 C19        58.7816    0.0162    6.1166 C.1         1 LGB       0.0860
     20 N20        59.4924   -0.8312    6.4203 N.1         1 LGB      -0.3388
     21 C21        52.5003    7.3701    3.1449 C.3         1 LGB       0.4246
     22 F22        51.1308    7.4715    3.1152 F           1 LGB      -0.1673
     23 F23        52.9440    7.0873    1.8762 F           1 LGB      -0.1673
     24 F24        53.0142    8.5947    3.5000 F           1 LGB      -0.1673
     25 H1         53.4973    2.8362    5.9764 H           1 LGB       0.0541
     26 H2         53.4658    1.9722    4.4183 H           1 LGB       0.0541
     27 H3         52.1746    4.6879    2.8536 H           1 LGB       0.0637
     28 H4         51.1823    4.8663    5.7519 H           1 LGB       0.0619
     29 H5         51.1560    2.4903    5.9229 H           1 LGB       0.0312
     30 H6         51.1617    2.2759    4.1561 H           1 LGB       0.0312
     31 H7         52.6825    6.6264    5.1682 H           1 LGB       0.0794
     32 H8         58.4398    2.1305    7.5105 H           1 LGB       0.0636
     33 H9         57.1004    4.0092    6.9217 H           1 LGB       0.0538
     34 H10        55.5118    3.1731    2.5320 H           1 LGB       0.0378
     35 H11        55.1007    1.4663    2.7082 H           1 LGB       0.0378
     36 H12        56.6694    1.9620    2.0596 H           1 LGB       0.0378
     37 H13        49.2896    4.1124    4.7206 H           1 LGB       0.2099
@<TRIPOS>BOND
     1     1     2   1
     2     1     5   1
     3     2     3   1
     4     2     6   1
     5     3     4   1
     6     3     8   1
     7     4     5   1
     8     4    18   1
     9     6     7   1
    10     6     9   2
    11     7     8   1
    12     8    21   1
    13     9    10   1
    14    10    11  ar
    15    10    15  ar
    16    11    12  ar
    17    11    16   1
    18    12    13  ar
    19    12    17   1
    20    13    14  ar
    21    13    19   1
    22    14    15  ar
    23    19    20   3
    24    21    22   1
    25    21    23   1
    26    21    24   1
    27     1    25   1
    28     1    26   1
    29     3    27   1
    30     4    28   1
    31     5    29   1
    32     5    30   1
    33     8    31   1
    34    14    32   1
    35    15    33   1
    36    16    34   1
    37    16    35   1
    38    16    36   1
    39    18    37   1
@<TRIPOS>SUBSTRUCTURE
     1  LGB      1

