@<TRIPOS>MOLECULE
3g0w_ligand_016
    37    39
SMALL
GAST_HUCK
****
This file was generated by PARSER (from files_GN.cpp)

@<TRIPOS>ATOM
      1 C1         51.0826    3.8738    3.9311 C.3         1 LGB       0.0449
      2 N2         52.3465    4.4571    3.6414 N.pl3       1 LGB      -0.2354
      3 C3         52.4161    5.8463    3.7847 C.3         1 LGB       0.1199
      4 C4         51.2449    6.1709    4.7286 C.3         1 LGB       0.0850
      5 C5         50.2155    5.0924    4.3277 C.3         1 LGB      -0.0025
      6 C6         53.5751    3.9078    3.6818 C.2         1 LGB       0.2667
      7 O7         54.5536    4.8465    3.7949 O.3         1 LGB      -0.2358
      8 C8         53.8634    6.0072    4.2992 C.3         1 LGB       0.2188
      9 N9         53.7832    2.5734    3.6817 N.2         1 LGB      -0.2946
     10 C10        54.8531    1.7301    3.7631 C.ar        1 LGB       0.0001
     11 C11        54.6290    0.3261    3.6487 C.ar        1 LGB      -0.0192
     12 C12        55.7384   -0.5675    3.7230 C.ar        1 LGB       0.0660
     13 C13        57.0450   -0.0644    3.9534 C.ar        1 LGB       0.0905
     14 C14        57.2487    1.3249    4.0612 C.ar        1 LGB      -0.0438
     15 C15        56.1663    2.2092    3.9626 C.ar        1 LGB      -0.0559
     16 C16        53.2566   -0.2291    3.4657 C.3         1 LGB      -0.0320
     17 CL17       55.5131   -2.2485    3.5180 Cl          1 LGB      -0.0696
     18 O18        50.8024    7.5174    4.5644 O.3         1 LGB      -0.3892
     19 C19        58.0825   -0.8500    4.0904 C.1         1 LGB       0.0860
     20 N20        58.9901   -1.5446    4.2176 N.1         1 LGB      -0.3388
     21 C21        54.5497    7.3184    3.8561 C.3         1 LGB       0.4246
     22 F22        53.8399    8.4151    4.2898 F           1 LGB      -0.1673
     23 F23        54.6375    7.3619    2.4857 F           1 LGB      -0.1673
     24 F24        55.8166    7.3755    4.3872 F           1 LGB      -0.1673
     25 H1         51.1754    3.1844    4.7762 H           1 LGB       0.0541
     26 H2         50.6788    3.3476    3.0630 H           1 LGB       0.0541
     27 H3         52.2634    6.3115    2.8038 H           1 LGB       0.0637
     28 H4         51.5316    6.0197    5.7717 H           1 LGB       0.0619
     29 H5         49.5320    4.8580    5.1480 H           1 LGB       0.0312
     30 H6         49.6446    5.4345    3.4604 H           1 LGB       0.0312
     31 H7         53.8710    5.9587    5.3929 H           1 LGB       0.0794
     32 H8         58.1852    1.7129    4.2161 H           1 LGB       0.0636
     33 H9         56.3552    3.2075    4.0538 H           1 LGB       0.0538
     34 H10        52.4668    0.5238    3.4441 H           1 LGB       0.0378
     35 H11        53.0390   -0.9124    4.2897 H           1 LGB       0.0378
     36 H12        53.2099   -0.7772    2.5258 H           1 LGB       0.0378
     37 H13        50.1701    7.6701    5.2961 H           1 LGB       0.2099
@<TRIPOS>BOND
     1     1     2   1
     2     1     5   1
     3     2     3   1
     4     2     6   1
     5     3     4   1
     6     3     8   1
     7     4     5   1
     8     4    18   1
     9     6     7   1
    10     6     9   2
    11     7     8   1
    12     8    21   1
    13     9    10   1
    14    10    11  ar
    15    10    15  ar
    16    11    12  ar
    17    11    16   1
    18    12    13  ar
    19    12    17   1
    20    13    14  ar
    21    13    19   1
    22    14    15  ar
    23    19    20   3
    24    21    22   1
    25    21    23   1
    26    21    24   1
    27     1    25   1
    28     1    26   1
    29     3    27   1
    30     4    28   1
    31     5    29   1
    32     5    30   1
    33     8    31   1
    34    14    32   1
    35    15    33   1
    36    16    34   1
    37    16    35   1
    38    16    36   1
    39    18    37   1
@<TRIPOS>SUBSTRUCTURE
     1  LGB      1

