@<TRIPOS>MOLECULE
3g0w_ligand_026
    37    39
SMALL
GAST_HUCK
****
This file was generated by PARSER (from files_GN.cpp)

@<TRIPOS>ATOM
      1 C1         53.7192    6.3268    2.8577 C.3         1 LGB       0.0449
      2 N2         53.4409    6.5911    4.2286 N.pl3       1 LGB      -0.2354
      3 C3         53.2603    7.9455    4.5473 C.3         1 LGB       0.1199
      4 C4         53.2303    8.6857    3.1917 C.3         1 LGB       0.0850
      5 C5         53.0937    7.5491    2.1593 C.3         1 LGB      -0.0025
      6 C6         52.7189    5.8183    5.0634 C.2         1 LGB       0.2667
      7 O7         51.9607    6.5504    5.9275 O.3         1 LGB      -0.2358
      8 C8         51.9492    7.8736    5.3670 C.3         1 LGB       0.2188
      9 N9         52.5993    4.4736    5.0629 N.2         1 LGB      -0.2946
     10 C10        53.2320    3.3853    4.5433 C.ar        1 LGB       0.0001
     11 C11        54.6375    3.1977    4.3556 C.ar        1 LGB      -0.0192
     12 C12        55.1082    1.9762    3.7796 C.ar        1 LGB       0.0660
     13 C13        54.1932    0.9401    3.4529 C.ar        1 LGB       0.0905
     14 C14        52.8163    1.1263    3.6878 C.ar        1 LGB      -0.0438
     15 C15        52.3489    2.3309    4.2243 C.ar        1 LGB      -0.0559
     16 C16        55.6462    4.1946    4.7972 C.3         1 LGB      -0.0320
     17 CL17       56.7781    1.7232    3.5091 Cl          1 LGB      -0.0696
     18 O18        54.4175    9.4470    2.9935 O.3         1 LGB      -0.3892
     19 C19        54.5782   -0.2129    2.9674 C.1         1 LGB       0.0860
     20 N20        54.9174   -1.2250    2.5569 N.1         1 LGB      -0.3388
     21 C21        51.8094    8.9873    6.4413 C.3         1 LGB       0.4246
     22 F22        51.8664   10.2332    5.8690 F           1 LGB      -0.1673
     23 F23        52.7984    8.9153    7.3897 F           1 LGB      -0.1673
     24 F24        50.5988    8.8969    7.0794 F           1 LGB      -0.1673
     25 H1         53.2726    5.4009    2.4890 H           1 LGB       0.0541
     26 H2         54.7993    6.2986    2.6981 H           1 LGB       0.0541
     27 H3         54.1011    8.2697    5.1664 H           1 LGB       0.0637
     28 H4         52.3947    9.3756    3.1217 H           1 LGB       0.0619
     29 H5         52.0333    7.3602    1.9656 H           1 LGB       0.0312
     30 H6         53.5854    7.7816    1.2141 H           1 LGB       0.0312
     31 H7         51.0856    7.9292    4.6942 H           1 LGB       0.0794
     32 H8         52.1349    0.3907    3.4665 H           1 LGB       0.0636
     33 H9         51.3396    2.4332    4.3757 H           1 LGB       0.0538
     34 H10        56.2216    4.5446    3.9404 H           1 LGB       0.0378
     35 H11        55.2274    5.0634    5.2966 H           1 LGB       0.0378
     36 H12        56.3317    3.7294    5.5064 H           1 LGB       0.0378
     37 H13        54.3684   10.1708    3.6537 H           1 LGB       0.2099
@<TRIPOS>BOND
     1     1     2   1
     2     1     5   1
     3     2     3   1
     4     2     6   1
     5     3     4   1
     6     3     8   1
     7     4     5   1
     8     4    18   1
     9     6     7   1
    10     6     9   2
    11     7     8   1
    12     8    21   1
    13     9    10   1
    14    10    11  ar
    15    10    15  ar
    16    11    12  ar
    17    11    16   1
    18    12    13  ar
    19    12    17   1
    20    13    14  ar
    21    13    19   1
    22    14    15  ar
    23    19    20   3
    24    21    22   1
    25    21    23   1
    26    21    24   1
    27     1    25   1
    28     1    26   1
    29     3    27   1
    30     4    28   1
    31     5    29   1
    32     5    30   1
    33     8    31   1
    34    14    32   1
    35    15    33   1
    36    16    34   1
    37    16    35   1
    38    16    36   1
    39    18    37   1
@<TRIPOS>SUBSTRUCTURE
     1  LGB      1

