@<TRIPOS>MOLECULE
3g0w_ligand_035
    37    39
SMALL
GAST_HUCK
****
This file was generated by PARSER (from files_GN.cpp)

@<TRIPOS>ATOM
      1 C1         56.5346    1.4641    3.6567 C.3         1 LGB       0.0449
      2 N2         56.0962    2.8167    3.7605 N.pl3       1 LGB      -0.2354
      3 C3         55.1132    3.1887    2.8408 C.3         1 LGB       0.1199
      4 C4         54.3892    1.8524    2.5778 C.3         1 LGB       0.0850
      5 C5         55.5475    0.8351    2.6486 C.3         1 LGB      -0.0025
      6 C6         56.1053    3.6561    4.8136 C.2         1 LGB       0.2667
      7 O7         55.1729    4.6392    4.7344 O.3         1 LGB      -0.2358
      8 C8         54.3731    4.3302    3.5833 C.3         1 LGB       0.2188
      9 N9         56.8624    3.6073    5.9259 N.2         1 LGB      -0.2946
     10 C10        57.8912    2.7738    6.1960 C.ar        1 LGB       0.0001
     11 C11        57.7468    1.6839    7.0917 C.ar        1 LGB      -0.0192
     12 C12        58.8878    0.8900    7.3972 C.ar        1 LGB       0.0660
     13 C13        60.1345    1.1667    6.7762 C.ar        1 LGB       0.0905
     14 C14        60.2431    2.2324    5.8625 C.ar        1 LGB      -0.0438
     15 C15        59.1313    3.0385    5.5859 C.ar        1 LGB      -0.0559
     16 C16        56.4110    1.3261    7.6473 C.3         1 LGB      -0.0320
     17 CL17       58.7516   -0.3766    8.5269 Cl          1 LGB      -0.0696
     18 O18        53.7072    1.8379    1.3266 O.3         1 LGB      -0.3892
     19 C19        61.2121    0.4780    7.0273 C.1         1 LGB       0.0860
     20 N20        62.1675   -0.1165    7.2536 N.1         1 LGB      -0.3388
     21 C21        54.1809    5.6225    2.7497 C.3         1 LGB       0.4246
     22 F22        53.5580    5.3549    1.5559 F           1 LGB      -0.1673
     23 F23        55.3930    6.2136    2.4788 F           1 LGB      -0.1673
     24 F24        53.4043    6.5293    3.4344 F           1 LGB      -0.1673
     25 H1         56.4542    0.9465    4.6146 H           1 LGB       0.0541
     26 H2         57.5646    1.4204    3.2951 H           1 LGB       0.0541
     27 H3         55.6153    3.5483    1.9384 H           1 LGB       0.0637
     28 H4         53.6701    1.6418    3.3762 H           1 LGB       0.0619
     29 H5         55.1955   -0.1454    2.9776 H           1 LGB       0.0312
     30 H6         56.0240    0.7308    1.6703 H           1 LGB       0.0312
     31 H7         53.3963    3.9786    3.9296 H           1 LGB       0.0794
     32 H8         61.1348    2.4526    5.4063 H           1 LGB       0.0636
     33 H9         59.2324    3.8250    4.9413 H           1 LGB       0.0538
     34 H10        55.6068    1.9738    7.3046 H           1 LGB       0.0378
     35 H11        56.1654    0.3091    7.3382 H           1 LGB       0.0378
     36 H12        56.4256    1.3682    8.7346 H           1 LGB       0.0378
     37 H13        53.3688    0.9223    1.2282 H           1 LGB       0.2099
@<TRIPOS>BOND
     1     1     2   1
     2     1     5   1
     3     2     3   1
     4     2     6   1
     5     3     4   1
     6     3     8   1
     7     4     5   1
     8     4    18   1
     9     6     7   1
    10     6     9   2
    11     7     8   1
    12     8    21   1
    13     9    10   1
    14    10    11  ar
    15    10    15  ar
    16    11    12  ar
    17    11    16   1
    18    12    13  ar
    19    12    17   1
    20    13    14  ar
    21    13    19   1
    22    14    15  ar
    23    19    20   3
    24    21    22   1
    25    21    23   1
    26    21    24   1
    27     1    25   1
    28     1    26   1
    29     3    27   1
    30     4    28   1
    31     5    29   1
    32     5    30   1
    33     8    31   1
    34    14    32   1
    35    15    33   1
    36    16    34   1
    37    16    35   1
    38    16    36   1
    39    18    37   1
@<TRIPOS>SUBSTRUCTURE
     1  LGB      1

