@<TRIPOS>MOLECULE
3g0w_ligand_009
    37    39
SMALL
GAST_HUCK
****
This file was generated by PARSER (from files_GN.cpp)

@<TRIPOS>ATOM
      1 C1         51.8485    2.0199    3.8748 C.3         1 LGB       0.0449
      2 N2         53.0129    2.7492    3.4920 N.pl3       1 LGB      -0.2354
      3 C3         52.9475    4.1387    3.6615 C.3         1 LGB       0.1199
      4 C4         51.9288    4.2700    4.8137 C.3         1 LGB       0.0850
      5 C5         50.9572    3.1088    4.5100 C.3         1 LGB      -0.0025
      6 C6         54.2818    2.3203    3.4081 C.2         1 LGB       0.2667
      7 O7         55.1695    3.3485    3.3979 O.3         1 LGB      -0.2358
      8 C8         54.4411    4.4919    3.8806 C.3         1 LGB       0.2188
      9 N9         54.5907    1.0019    3.4008 N.2         1 LGB      -0.2946
     10 C10        55.3948   -0.0998    3.3623 C.ar        1 LGB       0.0001
     11 C11        56.8111   -0.1339    3.1894 C.ar        1 LGB      -0.0192
     12 C12        57.4742   -1.4031    3.1748 C.ar        1 LGB       0.0660
     13 C13        56.7370   -2.6051    3.3310 C.ar        1 LGB       0.0905
     14 C14        55.3436   -2.5484    3.5118 C.ar        1 LGB      -0.0438
     15 C15        54.6834   -1.3111    3.5150 C.ar        1 LGB      -0.0559
     16 C16        57.6263    1.1017    3.0286 C.3         1 LGB      -0.0320
     17 CL17       59.1660   -1.5040    2.9605 Cl          1 LGB      -0.0696
     18 O18        51.2788    5.5384    4.8300 O.3         1 LGB      -0.3892
     19 C19        57.3106   -3.7802    3.3120 C.1         1 LGB       0.0860
     20 N20        57.8295   -4.8054    3.2780 N.1         1 LGB      -0.3388
     21 C21        54.9040    5.7858    3.1597 C.3         1 LGB       0.4246
     22 F22        54.1728    6.8751    3.5730 F           1 LGB      -0.1673
     23 F23        54.7792    5.6735    1.7957 F           1 LGB      -0.1673
     24 F24        56.2243    6.0414    3.4363 F           1 LGB      -0.1673
     25 H1         52.0956    1.2507    4.6118 H           1 LGB       0.0541
     26 H2         51.3746    1.5616    3.0017 H           1 LGB       0.0541
     27 H3         52.5501    4.5876    2.7432 H           1 LGB       0.0637
     28 H4         52.4116    4.1014    5.7813 H           1 LGB       0.0619
     29 H5         50.4667    2.7524    5.4153 H           1 LGB       0.0312
     30 H6         50.1989    3.4327    3.7920 H           1 LGB       0.0312
     31 H7         54.6407    4.5957    4.9513 H           1 LGB       0.0794
     32 H8         54.7913   -3.4007    3.6541 H           1 LGB       0.0636
     33 H9         53.6672   -1.3073    3.6453 H           1 LGB       0.0538
     34 H10        57.0505    2.0131    2.9747 H           1 LGB       0.0378
     35 H11        58.2055    1.0330    2.1057 H           1 LGB       0.0378
     36 H12        58.3112    1.1912    3.8740 H           1 LGB       0.0378
     37 H13        51.9253    6.1551    5.2346 H           1 LGB       0.2099
@<TRIPOS>BOND
     1     1     2   1
     2     1     5   1
     3     2     3   1
     4     2     6   1
     5     3     4   1
     6     3     8   1
     7     4     5   1
     8     4    18   1
     9     6     7   1
    10     6     9   2
    11     7     8   1
    12     8    21   1
    13     9    10   1
    14    10    11  ar
    15    10    15  ar
    16    11    12  ar
    17    11    16   1
    18    12    13  ar
    19    12    17   1
    20    13    14  ar
    21    13    19   1
    22    14    15  ar
    23    19    20   3
    24    21    22   1
    25    21    23   1
    26    21    24   1
    27     1    25   1
    28     1    26   1
    29     3    27   1
    30     4    28   1
    31     5    29   1
    32     5    30   1
    33     8    31   1
    34    14    32   1
    35    15    33   1
    36    16    34   1
    37    16    35   1
    38    16    36   1
    39    18    37   1
@<TRIPOS>SUBSTRUCTURE
     1  LGB      1

