@<TRIPOS>MOLECULE
3g0w_ligand_059
    37    39
SMALL
GAST_HUCK
****
This file was generated by PARSER (from files_GN.cpp)

@<TRIPOS>ATOM
      1 C1         56.3937    2.5660    5.7849 C.3         1 LGB       0.0449
      2 N2         57.5768    2.3859    5.0030 N.pl3       1 LGB      -0.2354
      3 C3         58.7810    2.4779    5.7281 C.3         1 LGB       0.1199
      4 C4         58.3686    2.7178    7.1859 C.3         1 LGB       0.0850
      5 C5         56.8875    2.2939    7.2176 C.3         1 LGB      -0.0025
      6 C6         57.7741    1.5603    3.9485 C.2         1 LGB       0.2667
      7 O7         59.0270    0.9975    3.9743 O.3         1 LGB      -0.2358
      8 C8         59.4115    1.1183    5.3593 C.3         1 LGB       0.2188
      9 N9         56.8805    1.1452    3.0187 N.2         1 LGB      -0.2946
     10 C10        55.5874    1.4997    2.7741 C.ar        1 LGB       0.0001
     11 C11        55.0482    2.8202    2.7948 C.ar        1 LGB      -0.0192
     12 C12        53.6341    2.9895    2.7717 C.ar        1 LGB       0.0660
     13 C13        52.7777    1.8632    2.5765 C.ar        1 LGB       0.0905
     14 C14        53.3439    0.5851    2.4210 C.ar        1 LGB      -0.0438
     15 C15        54.7296    0.4039    2.5291 C.ar        1 LGB      -0.0559
     16 C16        55.9290    4.0281    2.7559 C.3         1 LGB      -0.0320
     17 CL17       52.9584    4.5398    3.0010 Cl          1 LGB      -0.0696
     18 O18        58.5281    4.1118    7.4652 O.3         1 LGB      -0.3892
     19 C19        51.4786    1.9700    2.5462 C.1         1 LGB       0.0860
     20 N20        50.3357    2.0769    2.4969 N.1         1 LGB      -0.3388
     21 C21        60.9377    1.0046    5.6477 C.3         1 LGB       0.4246
     22 F22        61.1775    0.8690    6.9945 F           1 LGB      -0.1673
     23 F23        61.6592    2.0870    5.2037 F           1 LGB      -0.1673
     24 F24        61.4361   -0.1207    5.0369 F           1 LGB      -0.1673
     25 H1         55.5842    1.8725    5.5288 H           1 LGB       0.0541
     26 H2         56.0352    3.5944    5.7018 H           1 LGB       0.0541
     27 H3         59.3886    3.3057    5.3366 H           1 LGB       0.0637
     28 H4         58.9651    2.1317    7.8905 H           1 LGB       0.0619
     29 H5         56.8108    1.2241    7.4436 H           1 LGB       0.0312
     30 H6         56.3068    2.8509    7.9503 H           1 LGB       0.0312
     31 H7         58.9169    0.3068    5.9176 H           1 LGB       0.0794
     32 H8         52.7526   -0.2384    2.2776 H           1 LGB       0.0636
     33 H9         55.1069   -0.5478    2.4840 H           1 LGB       0.0538
     34 H10        56.9844    3.7782    2.7130 H           1 LGB       0.0378
     35 H11        55.7608    4.6585    3.6331 H           1 LGB       0.0378
     36 H12        55.6985    4.6139    1.8740 H           1 LGB       0.0378
     37 H13        58.4003    4.2146    8.4287 H           1 LGB       0.2099
@<TRIPOS>BOND
     1     1     2   1
     2     1     5   1
     3     2     3   1
     4     2     6   1
     5     3     4   1
     6     3     8   1
     7     4     5   1
     8     4    18   1
     9     6     7   1
    10     6     9   2
    11     7     8   1
    12     8    21   1
    13     9    10   1
    14    10    11  ar
    15    10    15  ar
    16    11    12  ar
    17    11    16   1
    18    12    13  ar
    19    12    17   1
    20    13    14  ar
    21    13    19   1
    22    14    15  ar
    23    19    20   3
    24    21    22   1
    25    21    23   1
    26    21    24   1
    27     1    25   1
    28     1    26   1
    29     3    27   1
    30     4    28   1
    31     5    29   1
    32     5    30   1
    33     8    31   1
    34    14    32   1
    35    15    33   1
    36    16    34   1
    37    16    35   1
    38    16    36   1
    39    18    37   1
@<TRIPOS>SUBSTRUCTURE
     1  LGB      1

