@<TRIPOS>MOLECULE
3g0w_ligand_003
    37    39
SMALL
GAST_HUCK
****
This file was generated by PARSER (from files_GN.cpp)

@<TRIPOS>ATOM
      1 C1         55.8197    4.1947    3.8402 C.3         1 LGB       0.0449
      2 N2         54.5119    3.8993    4.3211 N.pl3       1 LGB      -0.2354
      3 C3         53.5410    4.8941    4.0913 C.3         1 LGB       0.1199
      4 C4         54.2013    5.8511    3.0666 C.3         1 LGB       0.0850
      5 C5         55.7046    5.6678    3.3663 C.3         1 LGB      -0.0025
      6 C6         53.9298    2.6871    4.4957 C.2         1 LGB       0.2667
      7 O7         52.5792    2.7540    4.3371 O.3         1 LGB      -0.2358
      8 C8         52.3479    4.0016    3.6571 C.3         1 LGB       0.2188
      9 N9         54.5000    1.4732    4.7093 N.2         1 LGB      -0.2946
     10 C10        55.7635    1.1021    5.0593 C.ar        1 LGB       0.0001
     11 C11        56.4177   -0.0293    4.4899 C.ar        1 LGB      -0.0192
     12 C12        57.7748   -0.3100    4.8450 C.ar        1 LGB       0.0660
     13 C13        58.4478    0.5219    5.7806 C.ar        1 LGB       0.0905
     14 C14        57.7499    1.5633    6.4191 C.ar        1 LGB      -0.0438
     15 C15        56.4160    1.8223    6.0829 C.ar        1 LGB      -0.0559
     16 C16        55.7065   -0.9127    3.5182 C.3         1 LGB      -0.0320
     17 CL17       58.5891   -1.6613    4.1784 Cl          1 LGB      -0.0696
     18 O18        53.7930    7.2106    3.2495 O.3         1 LGB      -0.3892
     19 C19        59.7047    0.3648    6.1030 C.1         1 LGB       0.0860
     20 N20        60.8142    0.2552    6.3956 N.1         1 LGB      -0.3388
     21 C21        50.9412    4.5843    3.9715 C.3         1 LGB       0.4246
     22 F22        50.7723    5.8065    3.3656 F           1 LGB      -0.1673
     23 F23        50.7449    4.7257    5.3276 F           1 LGB      -0.1673
     24 F24        49.9687    3.7336    3.4891 F           1 LGB      -0.1673
     25 H1         56.0500    3.5542    2.9715 H           1 LGB       0.0541
     26 H2         56.5819    4.0876    4.6308 H           1 LGB       0.0541
     27 H3         53.3312    5.4338    5.0241 H           1 LGB       0.0637
     28 H4         53.9791    5.5343    2.0354 H           1 LGB       0.0619
     29 H5         56.3105    5.8680    2.4727 H           1 LGB       0.0312
     30 H6         56.0041    6.3566    4.1706 H           1 LGB       0.0312
     31 H7         52.4177    3.8089    2.5763 H           1 LGB       0.0794
     32 H8         58.1964    2.1598    7.1233 H           1 LGB       0.0636
     33 H9         55.9368    2.5891    6.5621 H           1 LGB       0.0538
     34 H10        54.6661   -0.6249    3.3405 H           1 LGB       0.0378
     35 H11        55.6962   -1.9366    3.8873 H           1 LGB       0.0378
     36 H12        56.2246   -0.8908    2.5501 H           1 LGB       0.0378
     37 H13        52.8685    7.2554    2.9154 H           1 LGB       0.2099
@<TRIPOS>BOND
     1     1     2   1
     2     1     5   1
     3     2     3   1
     4     2     6   1
     5     3     4   1
     6     3     8   1
     7     4     5   1
     8     4    18   1
     9     6     7   1
    10     6     9   2
    11     7     8   1
    12     8    21   1
    13     9    10   1
    14    10    11  ar
    15    10    15  ar
    16    11    12  ar
    17    11    16   1
    18    12    13  ar
    19    12    17   1
    20    13    14  ar
    21    13    19   1
    22    14    15  ar
    23    19    20   3
    24    21    22   1
    25    21    23   1
    26    21    24   1
    27     1    25   1
    28     1    26   1
    29     3    27   1
    30     4    28   1
    31     5    29   1
    32     5    30   1
    33     8    31   1
    34    14    32   1
    35    15    33   1
    36    16    34   1
    37    16    35   1
    38    16    36   1
    39    18    37   1
@<TRIPOS>SUBSTRUCTURE
     1  LGB      1

