@<TRIPOS>MOLECULE
3g0w_ligand_053
    37    39
SMALL
GAST_HUCK
****
This file was generated by PARSER (from files_GN.cpp)

@<TRIPOS>ATOM
      1 C1         54.9628    2.1339    3.6968 C.3         1 LGB       0.0449
      2 N2         54.9812    0.7516    3.3886 N.pl3       1 LGB      -0.2354
      3 C3         56.2219    0.2076    3.0654 C.3         1 LGB       0.1199
      4 C4         57.2354    1.2551    3.5988 C.3         1 LGB       0.0850
      5 C5         56.4345    2.5683    3.4965 C.3         1 LGB      -0.0025
      6 C6         54.1380   -0.2142    3.8004 C.2         1 LGB       0.2667
      7 O7         54.7208   -1.4383    3.8138 O.3         1 LGB      -0.2358
      8 C8         56.1342   -1.1783    3.7587 C.3         1 LGB       0.2188
      9 N9         52.8775   -0.0834    4.2394 N.2         1 LGB      -0.2946
     10 C10        52.0937    1.0205    4.2286 C.ar        1 LGB       0.0001
     11 C11        51.6056    1.6576    3.0469 C.ar        1 LGB      -0.0192
     12 C12        50.8670    2.8619    3.1649 C.ar        1 LGB       0.0660
     13 C13        50.6107    3.4274    4.4466 C.ar        1 LGB       0.0905
     14 C14        51.0589    2.7653    5.5994 C.ar        1 LGB      -0.0438
     15 C15        51.7801    1.5654    5.4857 C.ar        1 LGB      -0.0559
     16 C16        51.8642    1.0517    1.6977 C.3         1 LGB      -0.0320
     17 CL17       50.2395    3.6391    1.7804 Cl          1 LGB      -0.0696
     18 O18        58.4205    1.3231    2.8224 O.3         1 LGB      -0.3892
     19 C19        49.9406    4.5400    4.6026 C.1         1 LGB       0.0860
     20 N20        49.3429    5.5044    4.7255 N.1         1 LGB      -0.3388
     21 C21        56.9055   -2.3210    3.0504 C.3         1 LGB       0.4246
     22 F22        58.2375   -2.0119    2.9354 F           1 LGB      -0.1673
     23 F23        56.3894   -2.5703    1.8001 F           1 LGB      -0.1673
     24 F24        56.8044   -3.4792    3.7802 F           1 LGB      -0.1673
     25 H1         54.6698    2.3086    4.7422 H           1 LGB       0.0541
     26 H2         54.2955    2.7014    3.0296 H           1 LGB       0.0541
     27 H3         56.2967    0.1127    1.9706 H           1 LGB       0.0637
     28 H4         57.4832    1.0625    4.6485 H           1 LGB       0.0619
     29 H5         56.7598    3.3126    4.2439 H           1 LGB       0.0312
     30 H6         56.5447    3.0090    2.4981 H           1 LGB       0.0312
     31 H7         56.5101   -1.0918    4.7838 H           1 LGB       0.0794
     32 H8         50.8746    3.1419    6.5390 H           1 LGB       0.0636
     33 H9         52.0937    1.1012    6.3350 H           1 LGB       0.0538
     34 H10        52.3503    0.0732    1.7453 H           1 LGB       0.0378
     35 H11        52.5247    1.7159    1.1205 H           1 LGB       0.0378
     36 H12        50.9225    0.9205    1.1543 H           1 LGB       0.0378
     37 H13        58.8204    0.4280    2.8934 H           1 LGB       0.2099
@<TRIPOS>BOND
     1     1     2   1
     2     1     5   1
     3     2     3   1
     4     2     6   1
     5     3     4   1
     6     3     8   1
     7     4     5   1
     8     4    18   1
     9     6     7   1
    10     6     9   2
    11     7     8   1
    12     8    21   1
    13     9    10   1
    14    10    11  ar
    15    10    15  ar
    16    11    12  ar
    17    11    16   1
    18    12    13  ar
    19    12    17   1
    20    13    14  ar
    21    13    19   1
    22    14    15  ar
    23    19    20   3
    24    21    22   1
    25    21    23   1
    26    21    24   1
    27     1    25   1
    28     1    26   1
    29     3    27   1
    30     4    28   1
    31     5    29   1
    32     5    30   1
    33     8    31   1
    34    14    32   1
    35    15    33   1
    36    16    34   1
    37    16    35   1
    38    16    36   1
    39    18    37   1
@<TRIPOS>SUBSTRUCTURE
     1  LGB      1

