@<TRIPOS>MOLECULE
3g0w_ligand_004
    37    39
SMALL
GAST_HUCK
****
This file was generated by PARSER (from files_GN.cpp)

@<TRIPOS>ATOM
      1 C1         52.6992    2.2940    3.4575 C.3         1 LGB       0.0449
      2 N2         53.0873    3.6472    3.6861 N.pl3       1 LGB      -0.2354
      3 C3         52.0147    4.5433    3.8169 C.3         1 LGB       0.1199
      4 C4         50.8465    3.6490    4.2830 C.3         1 LGB       0.0850
      5 C5         51.1618    2.3052    3.5977 C.3         1 LGB      -0.0025
      6 C6         54.2016    4.1626    4.2499 C.2         1 LGB       0.2667
      7 O7         54.0127    5.4381    4.6841 O.3         1 LGB      -0.2358
      8 C8         52.5898    5.5866    4.8027 C.3         1 LGB       0.2188
      9 N9         55.4027    3.6067    4.5312 N.2         1 LGB      -0.2946
     10 C10        56.0656    2.4513    4.2551 C.ar        1 LGB       0.0001
     11 C11        57.0124    1.9205    5.1806 C.ar        1 LGB      -0.0192
     12 C12        57.6876    0.7046    4.8638 C.ar        1 LGB       0.0660
     13 C13        57.4327    0.0461    3.6304 C.ar        1 LGB       0.0905
     14 C14        56.5336    0.6163    2.7094 C.ar        1 LGB      -0.0438
     15 C15        55.8774    1.8158    3.0121 C.ar        1 LGB      -0.0559
     16 C16        57.2937    2.6082    6.4781 C.3         1 LGB      -0.0320
     17 CL17       58.8197    0.0322    5.9542 Cl          1 LGB      -0.0696
     18 O18        49.5825    4.1843    3.8973 O.3         1 LGB      -0.3892
     19 C19        58.0145   -1.0757    3.2940 C.1         1 LGB       0.0860
     20 N20        58.5248   -2.0619    2.9979 N.1         1 LGB      -0.3388
     21 C21        52.1588    7.0531    4.5431 C.3         1 LGB       0.4246
     22 F22        50.7910    7.1697    4.5740 F           1 LGB      -0.1673
     23 F23        52.6076    7.5041    3.3241 F           1 LGB      -0.1673
     24 F24        52.6746    7.8755    5.5157 F           1 LGB      -0.1673
     25 H1         53.1434    1.6239    4.1984 H           1 LGB       0.0541
     26 H2         52.9762    1.9757    2.4501 H           1 LGB       0.0541
     27 H3         51.8050    4.9840    2.8385 H           1 LGB       0.0637
     28 H4         50.8618    3.5124    5.3690 H           1 LGB       0.0619
     29 H5         50.8032    1.4605    4.1914 H           1 LGB       0.0312
     30 H6         50.6939    2.2684    2.6091 H           1 LGB       0.0312
     31 H7         52.3114    5.3199    5.8270 H           1 LGB       0.0794
     32 H8         56.3516    0.1771    1.8000 H           1 LGB       0.0636
     33 H9         55.2821    2.2382    2.2985 H           1 LGB       0.0538
     34 H10        56.7555    3.5466    6.6051 H           1 LGB       0.0378
     35 H11        58.3582    2.8375    6.5540 H           1 LGB       0.0378
     36 H12        57.0143    1.9532    7.3059 H           1 LGB       0.0378
     37 H13        48.9318    3.4781    4.0978 H           1 LGB       0.2099
@<TRIPOS>BOND
     1     1     2   1
     2     1     5   1
     3     2     3   1
     4     2     6   1
     5     3     4   1
     6     3     8   1
     7     4     5   1
     8     4    18   1
     9     6     7   1
    10     6     9   2
    11     7     8   1
    12     8    21   1
    13     9    10   1
    14    10    11  ar
    15    10    15  ar
    16    11    12  ar
    17    11    16   1
    18    12    13  ar
    19    12    17   1
    20    13    14  ar
    21    13    19   1
    22    14    15  ar
    23    19    20   3
    24    21    22   1
    25    21    23   1
    26    21    24   1
    27     1    25   1
    28     1    26   1
    29     3    27   1
    30     4    28   1
    31     5    29   1
    32     5    30   1
    33     8    31   1
    34    14    32   1
    35    15    33   1
    36    16    34   1
    37    16    35   1
    38    16    36   1
    39    18    37   1
@<TRIPOS>SUBSTRUCTURE
     1  LGB      1

