@<TRIPOS>MOLECULE
3g0w_ligand_048
    37    39
SMALL
GAST_HUCK
****
This file was generated by PARSER (from files_GN.cpp)

@<TRIPOS>ATOM
      1 C1         50.2637    3.7666    3.5863 C.3         1 LGB       0.0449
      2 N2         51.6893    3.6575    3.5458 N.pl3       1 LGB      -0.2354
      3 C3         52.1248    2.7180    4.5096 C.3         1 LGB       0.1199
      4 C4         51.0525    2.7487    5.6218 C.3         1 LGB       0.0850
      5 C5         49.9928    3.7406    5.0867 C.3         1 LGB      -0.0025
      6 C6         52.2902    3.3455    2.3895 C.2         1 LGB       0.2667
      7 O7         52.4893    1.9924    2.2747 O.3         1 LGB      -0.2358
      8 C8         52.2528    1.4633    3.5949 C.3         1 LGB       0.2188
      9 N9         53.3712    4.0484    1.9625 N.2         1 LGB      -0.2946
     10 C10        53.9294    5.1853    2.4711 C.ar        1 LGB       0.0001
     11 C11        53.2555    6.3233    3.0193 C.ar        1 LGB      -0.0192
     12 C12        53.9591    7.1638    3.9261 C.ar        1 LGB       0.0660
     13 C13        55.3321    6.9383    4.1828 C.ar        1 LGB       0.0905
     14 C14        56.0189    5.9389    3.4675 C.ar        1 LGB      -0.0438
     15 C15        55.3216    5.0635    2.6301 C.ar        1 LGB      -0.0559
     16 C16        51.8913    6.7127    2.5836 C.3         1 LGB      -0.0320
     17 CL17       53.1350    8.4325    4.7247 Cl          1 LGB      -0.0696
     18 O18        51.5900    3.2107    6.8629 O.3         1 LGB      -0.3892
     19 C19        55.9954    7.6129    5.0729 C.1         1 LGB       0.0860
     20 N20        56.6042    8.1876    5.8631 N.1         1 LGB      -0.3388
     21 C21        53.3468    0.4464    3.9941 C.3         1 LGB       0.4246
     22 F22        53.0668   -0.1106    5.2145 F           1 LGB      -0.1673
     23 F23        54.5892    1.0277    4.0489 F           1 LGB      -0.1673
     24 F24        53.3987   -0.5720    3.0765 F           1 LGB      -0.1673
     25 H1         49.7614    2.9363    3.0790 H           1 LGB       0.0541
     26 H2         49.8746    4.6746    3.1583 H           1 LGB       0.0541
     27 H3         53.0962    3.0298    4.9123 H           1 LGB       0.0637
     28 H4         50.6155    1.7641    5.7651 H           1 LGB       0.0619
     29 H5         48.9626    3.4177    5.2816 H           1 LGB       0.0312
     30 H6         50.1542    4.7464    5.5202 H           1 LGB       0.0312
     31 H7         51.2947    0.9382    3.5573 H           1 LGB       0.0794
     32 H8         57.0160    5.7931    3.5901 H           1 LGB       0.0636
     33 H9         55.8360    4.2832    2.2070 H           1 LGB       0.0538
     34 H10        51.5126    6.0225    1.8412 H           1 LGB       0.0378
     35 H11        51.9107    7.7106    2.1339 H           1 LGB       0.0378
     36 H12        51.2120    6.7136    3.4383 H           1 LGB       0.0378
     37 H13        50.8811    3.0838    7.5277 H           1 LGB       0.2099
@<TRIPOS>BOND
     1     1     2   1
     2     1     5   1
     3     2     3   1
     4     2     6   1
     5     3     4   1
     6     3     8   1
     7     4     5   1
     8     4    18   1
     9     6     7   1
    10     6     9   2
    11     7     8   1
    12     8    21   1
    13     9    10   1
    14    10    11  ar
    15    10    15  ar
    16    11    12  ar
    17    11    16   1
    18    12    13  ar
    19    12    17   1
    20    13    14  ar
    21    13    19   1
    22    14    15  ar
    23    19    20   3
    24    21    22   1
    25    21    23   1
    26    21    24   1
    27     1    25   1
    28     1    26   1
    29     3    27   1
    30     4    28   1
    31     5    29   1
    32     5    30   1
    33     8    31   1
    34    14    32   1
    35    15    33   1
    36    16    34   1
    37    16    35   1
    38    16    36   1
    39    18    37   1
@<TRIPOS>SUBSTRUCTURE
     1  LGB      1

