@<TRIPOS>MOLECULE
3g0w_ligand_055
    37    39
SMALL
GAST_HUCK
****
This file was generated by PARSER (from files_GN.cpp)

@<TRIPOS>ATOM
      1 C1         51.3596    6.7549    5.0396 C.3         1 LGB       0.0449
      2 N2         52.6922    6.8785    4.5678 N.pl3       1 LGB      -0.2354
      3 C3         53.2818    5.6778    4.1252 C.3         1 LGB       0.1199
      4 C4         52.0918    4.7088    3.9491 C.3         1 LGB       0.0850
      5 C5         51.0760    5.2374    4.9793 C.3         1 LGB      -0.0025
      6 C6         53.3066    7.9402    4.0189 C.2         1 LGB       0.2667
      7 O7         54.2989    7.5635    3.1627 O.3         1 LGB      -0.2358
      8 C8         54.0608    6.1695    2.8812 C.3         1 LGB       0.2188
      9 N9         53.0874    9.2731    4.1543 N.2         1 LGB      -0.2946
     10 C10        52.4560   10.3118    4.7776 C.ar        1 LGB       0.0001
     11 C11        52.5255   11.6245    4.2235 C.ar        1 LGB      -0.0192
     12 C12        52.0349   12.7364    4.9709 C.ar        1 LGB       0.0660
     13 C13        51.4211   12.5273    6.2395 C.ar        1 LGB       0.0905
     14 C14        51.3114   11.2184    6.7500 C.ar        1 LGB      -0.0438
     15 C15        51.8584   10.1329    6.0435 C.ar        1 LGB      -0.0559
     16 C16        53.1328   11.8524    2.8687 C.3         1 LGB      -0.0320
     17 CL17       52.2120   14.3266    4.3774 Cl          1 LGB      -0.0696
     18 O18        52.4404    3.3497    4.2119 O.3         1 LGB      -0.3892
     19 C19        50.9909   13.5113    6.9829 C.1         1 LGB       0.0860
     20 N20        50.6334   14.3794    7.6426 N.1         1 LGB      -0.3388
     21 C21        55.3726    5.3927    2.5843 C.3         1 LGB       0.4246
     22 F22        55.1301    4.0475    2.4546 F           1 LGB      -0.1673
     23 F23        56.2969    5.5674    3.5832 F           1 LGB      -0.1673
     24 F24        55.9418    5.8195    1.4079 F           1 LGB      -0.1673
     25 H1         50.6676    7.3011    4.3892 H           1 LGB       0.0541
     26 H2         51.2651    7.1187    6.0619 H           1 LGB       0.0541
     27 H3         53.9616    5.3122    4.8995 H           1 LGB       0.0637
     28 H4         51.6678    4.7890    2.9450 H           1 LGB       0.0619
     29 H5         50.0468    5.0243    4.6810 H           1 LGB       0.0312
     30 H6         51.2643    4.7787    5.9561 H           1 LGB       0.0312
     31 H7         53.4198    6.1151    1.9924 H           1 LGB       0.0794
     32 H8         50.8668   11.0355    7.6561 H           1 LGB       0.0636
     33 H9         51.8496    9.2152    6.4918 H           1 LGB       0.0538
     34 H10        53.4151   10.9286    2.3678 H           1 LGB       0.0378
     35 H11        54.0316   12.4661    2.9645 H           1 LGB       0.0378
     36 H12        52.4157   12.3675    2.2304 H           1 LGB       0.0378
     37 H13        53.0775    3.1026    3.5102 H           1 LGB       0.2099
@<TRIPOS>BOND
     1     1     2   1
     2     1     5   1
     3     2     3   1
     4     2     6   1
     5     3     4   1
     6     3     8   1
     7     4     5   1
     8     4    18   1
     9     6     7   1
    10     6     9   2
    11     7     8   1
    12     8    21   1
    13     9    10   1
    14    10    11  ar
    15    10    15  ar
    16    11    12  ar
    17    11    16   1
    18    12    13  ar
    19    12    17   1
    20    13    14  ar
    21    13    19   1
    22    14    15  ar
    23    19    20   3
    24    21    22   1
    25    21    23   1
    26    21    24   1
    27     1    25   1
    28     1    26   1
    29     3    27   1
    30     4    28   1
    31     5    29   1
    32     5    30   1
    33     8    31   1
    34    14    32   1
    35    15    33   1
    36    16    34   1
    37    16    35   1
    38    16    36   1
    39    18    37   1
@<TRIPOS>SUBSTRUCTURE
     1  LGB      1

