@<TRIPOS>MOLECULE
3g0w_ligand_065
    37    39
SMALL
GAST_HUCK
****
This file was generated by PARSER (from files_GN.cpp)

@<TRIPOS>ATOM
      1 C1         55.2905    5.7846    4.4359 C.3         1 LGB       0.0449
      2 N2         54.0424    5.7554    3.7547 N.pl3       1 LGB      -0.2354
      3 C3         53.2429    6.8851    3.9388 C.3         1 LGB       0.1199
      4 C4         54.2428    7.9975    4.2842 C.3         1 LGB       0.0850
      5 C5         55.3716    7.2232    4.9973 C.3         1 LGB      -0.0025
      6 C6         53.8345    5.2047    2.5469 C.2         1 LGB       0.2667
      7 O7         53.0835    5.9645    1.7321 O.3         1 LGB      -0.2358
      8 C8         52.4938    6.9693    2.5861 C.3         1 LGB       0.2188
      9 N9         54.3379    4.0352    2.1116 N.2         1 LGB      -0.2946
     10 C10        54.8286    3.0392    2.8836 C.ar        1 LGB       0.0001
     11 C11        54.0184    2.2984    3.7937 C.ar        1 LGB      -0.0192
     12 C12        54.6168    1.2121    4.4952 C.ar        1 LGB       0.0660
     13 C13        56.0004    0.9254    4.3326 C.ar        1 LGB       0.0905
     14 C14        56.7727    1.6742    3.4229 C.ar        1 LGB      -0.0438
     15 C15        56.1824    2.7081    2.6884 C.ar        1 LGB      -0.0559
     16 C16        52.5623    2.6026    3.9897 C.3         1 LGB      -0.0320
     17 CL17       53.6703    0.2142    5.5055 Cl          1 LGB      -0.0696
     18 O18        53.6389    8.9918    5.1088 O.3         1 LGB      -0.3892
     19 C19        56.6093   -0.0126    5.0067 C.1         1 LGB       0.0860
     20 N20        57.1456   -0.8324    5.6069 N.1         1 LGB      -0.3388
     21 C21        50.9654    6.7517    2.7568 C.3         1 LGB       0.4246
     22 F22        50.4433    7.7128    3.5770 F           1 LGB      -0.1673
     23 F23        50.6598    5.5290    3.3021 F           1 LGB      -0.1673
     24 F24        50.3196    6.8541    1.5549 F           1 LGB      -0.1673
     25 H1         56.1437    5.6015    3.7739 H           1 LGB       0.0541
     26 H2         55.2919    5.0304    5.2256 H           1 LGB       0.0541
     27 H3         52.5710    6.7041    4.7875 H           1 LGB       0.0637
     28 H4         54.6375    8.4761    3.3837 H           1 LGB       0.0619
     29 H5         56.3455    7.6826    4.8044 H           1 LGB       0.0312
     30 H6         55.1875    7.2229    6.0736 H           1 LGB       0.0312
     31 H7         52.6509    7.9433    2.1213 H           1 LGB       0.0794
     32 H8         57.7692    1.4764    3.2761 H           1 LGB       0.0636
     33 H9         56.7531    3.2392    2.0293 H           1 LGB       0.0538
     34 H10        52.1950    3.4984    3.4807 H           1 LGB       0.0378
     35 H11        52.3605    2.7407    5.0546 H           1 LGB       0.0378
     36 H12        51.9680    1.7601    3.6249 H           1 LGB       0.0378
     37 H13        53.2302    9.6279    4.4813 H           1 LGB       0.2099
@<TRIPOS>BOND
     1     1     2   1
     2     1     5   1
     3     2     3   1
     4     2     6   1
     5     3     4   1
     6     3     8   1
     7     4     5   1
     8     4    18   1
     9     6     7   1
    10     6     9   2
    11     7     8   1
    12     8    21   1
    13     9    10   1
    14    10    11  ar
    15    10    15  ar
    16    11    12  ar
    17    11    16   1
    18    12    13  ar
    19    12    17   1
    20    13    14  ar
    21    13    19   1
    22    14    15  ar
    23    19    20   3
    24    21    22   1
    25    21    23   1
    26    21    24   1
    27     1    25   1
    28     1    26   1
    29     3    27   1
    30     4    28   1
    31     5    29   1
    32     5    30   1
    33     8    31   1
    34    14    32   1
    35    15    33   1
    36    16    34   1
    37    16    35   1
    38    16    36   1
    39    18    37   1
@<TRIPOS>SUBSTRUCTURE
     1  LGB      1

