@<TRIPOS>MOLECULE
3g0w_ligand_047
    37    39
SMALL
GAST_HUCK
****
This file was generated by PARSER (from files_GN.cpp)

@<TRIPOS>ATOM
      1 C1         55.1588    0.8644    5.2585 C.3         1 LGB       0.0449
      2 N2         54.7362    1.0000    3.9125 N.pl3       1 LGB      -0.2354
      3 C3         53.5421    1.7143    3.7743 C.3         1 LGB       0.1199
      4 C4         53.6697    2.7946    4.8726 C.3         1 LGB       0.0850
      5 C5         54.7514    2.2351    5.8357 C.3         1 LGB      -0.0025
      6 C6         55.4990    1.0981    2.8062 C.2         1 LGB       0.2667
      7 O7         54.9464    1.9018    1.8598 O.3         1 LGB      -0.2358
      8 C8         53.5939    2.1429    2.2818 C.3         1 LGB       0.2188
      9 N9         56.6840    0.5081    2.5390 N.2         1 LGB      -0.2946
     10 C10        57.3115   -0.4964    3.2070 C.ar        1 LGB       0.0001
     11 C11        56.9366   -1.8558    3.0270 C.ar        1 LGB      -0.0192
     12 C12        57.7558   -2.8838    3.5782 C.ar        1 LGB       0.0660
     13 C13        58.8687   -2.5396    4.3898 C.ar        1 LGB       0.0905
     14 C14        59.1617   -1.1812    4.6394 C.ar        1 LGB      -0.0438
     15 C15        58.4091   -0.1687    4.0238 C.ar        1 LGB      -0.0559
     16 C16        55.7188   -2.1591    2.2254 C.3         1 LGB      -0.0320
     17 CL17       57.4642   -4.5242    3.2221 Cl          1 LGB      -0.0696
     18 O18        52.4125    3.0150    5.5122 O.3         1 LGB      -0.3892
     19 C19        59.6650   -3.4454    4.8978 C.1         1 LGB       0.0860
     20 N20        60.3757   -4.2407    5.3185 N.1         1 LGB      -0.3388
     21 C21        52.6102    1.3593    1.3674 C.3         1 LGB       0.4246
     22 F22        52.8132    0.0026    1.4419 F           1 LGB      -0.1673
     23 F23        52.7861    1.7276    0.0527 F           1 LGB      -0.1673
     24 F24        51.3055    1.6157    1.7123 F           1 LGB      -0.1673
     25 H1         56.2254    0.7032    5.3901 H           1 LGB       0.0541
     26 H2         54.6136    0.0472    5.7363 H           1 LGB       0.0541
     27 H3         52.6945    1.0494    3.9838 H           1 LGB       0.0637
     28 H4         54.0137    3.7455    4.4499 H           1 LGB       0.0619
     29 H5         55.6234    2.8987    5.8360 H           1 LGB       0.0312
     30 H6         54.3902    2.1340    6.8569 H           1 LGB       0.0312
     31 H7         53.3796    3.2114    2.1820 H           1 LGB       0.0794
     32 H8         59.9534   -0.9103    5.2297 H           1 LGB       0.0636
     33 H9         58.6580    0.8082    4.1835 H           1 LGB       0.0538
     34 H10        54.9118   -1.4857    2.5345 H           1 LGB       0.0378
     35 H11        55.3141   -3.1633    2.3960 H           1 LGB       0.0378
     36 H12        55.9088   -2.0217    1.1646 H           1 LGB       0.0378
     37 H13        52.5794    3.7199    6.1777 H           1 LGB       0.2099
@<TRIPOS>BOND
     1     1     2   1
     2     1     5   1
     3     2     3   1
     4     2     6   1
     5     3     4   1
     6     3     8   1
     7     4     5   1
     8     4    18   1
     9     6     7   1
    10     6     9   2
    11     7     8   1
    12     8    21   1
    13     9    10   1
    14    10    11  ar
    15    10    15  ar
    16    11    12  ar
    17    11    16   1
    18    12    13  ar
    19    12    17   1
    20    13    14  ar
    21    13    19   1
    22    14    15  ar
    23    19    20   3
    24    21    22   1
    25    21    23   1
    26    21    24   1
    27     1    25   1
    28     1    26   1
    29     3    27   1
    30     4    28   1
    31     5    29   1
    32     5    30   1
    33     8    31   1
    34    14    32   1
    35    15    33   1
    36    16    34   1
    37    16    35   1
    38    16    36   1
    39    18    37   1
@<TRIPOS>SUBSTRUCTURE
     1  LGB      1

