@<TRIPOS>MOLECULE
3g0w_ligand_014
    37    39
SMALL
GAST_HUCK
****
This file was generated by PARSER (from files_GN.cpp)

@<TRIPOS>ATOM
      1 C1         58.7195    2.5347    4.8187 C.3         1 LGB       0.0449
      2 N2         57.7347    1.6573    5.3455 N.pl3       1 LGB      -0.2354
      3 C3         58.1917    0.7743    6.3353 C.3         1 LGB       0.1199
      4 C4         59.6290    1.2443    6.6713 C.3         1 LGB       0.0850
      5 C5         59.7443    2.6099    5.9630 C.3         1 LGB      -0.0025
      6 C6         56.4316    1.9477    5.5272 C.2         1 LGB       0.2667
      7 O7         55.9199    1.3065    6.6195 O.3         1 LGB      -0.2358
      8 C8         57.0914    0.9867    7.3989 C.3         1 LGB       0.2188
      9 N9         55.7967    2.8834    4.7843 N.2         1 LGB      -0.2946
     10 C10        54.5594    3.4532    4.7147 C.ar        1 LGB       0.0001
     11 C11        54.3408    4.5869    3.8759 C.ar        1 LGB      -0.0192
     12 C12        53.0549    5.2030    3.8560 C.ar        1 LGB       0.0660
     13 C13        51.9899    4.6563    4.6217 C.ar        1 LGB       0.0905
     14 C14        52.2174    3.5210    5.4214 C.ar        1 LGB      -0.0438
     15 C15        53.4871    2.9331    5.4652 C.ar        1 LGB      -0.0559
     16 C16        55.4303    5.1319    3.0097 C.3         1 LGB      -0.0320
     17 CL17       52.7795    6.6123    2.9281 Cl          1 LGB      -0.0696
     18 O18        60.5957    0.3340    6.1446 O.3         1 LGB      -0.3892
     19 C19        50.7785    5.1432    4.6007 C.1         1 LGB       0.0860
     20 N20        49.7064    5.5554    4.5780 N.1         1 LGB      -0.3388
     21 C21        56.8878   -0.2082    8.3667 C.3         1 LGB       0.4246
     22 F22        58.0729   -0.5934    8.9452 F           1 LGB      -0.1673
     23 F23        56.3534   -1.2868    7.7130 F           1 LGB      -0.1673
     24 F24        56.0310    0.1375    9.3804 F           1 LGB      -0.1673
     25 H1         58.3431    3.5327    4.5881 H           1 LGB       0.0541
     26 H2         59.1494    2.0871    3.9230 H           1 LGB       0.0541
     27 H3         58.1759   -0.2499    5.9485 H           1 LGB       0.0637
     28 H4         59.7878    1.3379    7.7498 H           1 LGB       0.0619
     29 H5         59.4488    3.4062    6.6522 H           1 LGB       0.0312
     30 H6         60.7558    2.8085    5.5991 H           1 LGB       0.0312
     31 H7         57.3408    1.8668    7.9995 H           1 LGB       0.0794
     32 H8         51.4632    3.1062    5.9798 H           1 LGB       0.0636
     33 H9         53.6185    2.1130    6.0520 H           1 LGB       0.0538
     34 H10        56.3554    4.5625    3.0608 H           1 LGB       0.0378
     35 H11        55.6570    6.1597    3.2973 H           1 LGB       0.0378
     36 H12        55.1047    5.1216    1.9684 H           1 LGB       0.0378
     37 H13        60.3693   -0.5313    6.5455 H           1 LGB       0.2099
@<TRIPOS>BOND
     1     1     2   1
     2     1     5   1
     3     2     3   1
     4     2     6   1
     5     3     4   1
     6     3     8   1
     7     4     5   1
     8     4    18   1
     9     6     7   1
    10     6     9   2
    11     7     8   1
    12     8    21   1
    13     9    10   1
    14    10    11  ar
    15    10    15  ar
    16    11    12  ar
    17    11    16   1
    18    12    13  ar
    19    12    17   1
    20    13    14  ar
    21    13    19   1
    22    14    15  ar
    23    19    20   3
    24    21    22   1
    25    21    23   1
    26    21    24   1
    27     1    25   1
    28     1    26   1
    29     3    27   1
    30     4    28   1
    31     5    29   1
    32     5    30   1
    33     8    31   1
    34    14    32   1
    35    15    33   1
    36    16    34   1
    37    16    35   1
    38    16    36   1
    39    18    37   1
@<TRIPOS>SUBSTRUCTURE
     1  LGB      1

