@<TRIPOS>MOLECULE
3g0w_ligand_038
    37    39
SMALL
GAST_HUCK
****
This file was generated by PARSER (from files_GN.cpp)

@<TRIPOS>ATOM
      1 C1         59.4385    0.3626    5.6182 C.3         1 LGB       0.0449
      2 N2         58.3022   -0.0341    6.3776 N.pl3       1 LGB      -0.2354
      3 C3         58.4790   -0.0853    7.7640 C.3         1 LGB       0.1199
      4 C4         59.6219    0.9253    7.9764 C.3         1 LGB       0.0850
      5 C5         60.4783    0.7278    6.6980 C.3         1 LGB      -0.0025
      6 C6         57.0033    0.0896    6.0616 C.2         1 LGB       0.2667
      7 O7         56.1893   -0.0432    7.1503 O.3         1 LGB      -0.2358
      8 C8         57.0477    0.2228    8.2767 C.3         1 LGB       0.2188
      9 N9         56.5833    0.3292    4.8004 N.2         1 LGB      -0.2946
     10 C10        55.3686    0.6080    4.2502 C.ar        1 LGB       0.0001
     11 C11        55.1399    0.3487    2.8690 C.ar        1 LGB      -0.0192
     12 C12        53.8672    0.6736    2.3035 C.ar        1 LGB       0.0660
     13 C13        52.8448    1.2329    3.1161 C.ar        1 LGB       0.0905
     14 C14        53.0964    1.4948    4.4737 C.ar        1 LGB      -0.0438
     15 C15        54.3474    1.1980    5.0240 C.ar        1 LGB      -0.0559
     16 C16        56.1895   -0.2928    2.0223 C.3         1 LGB      -0.0320
     17 CL17       53.5474    0.3835    0.6487 Cl          1 LGB      -0.0696
     18 O18        60.3444    0.6889    9.1856 O.3         1 LGB      -0.3892
     19 C19        51.6643    1.5382    2.6465 C.1         1 LGB       0.0860
     20 N20        50.6282    1.8055    2.2285 N.1         1 LGB      -0.3388
     21 C21        56.6347   -0.6153    9.5225 C.3         1 LGB       0.4246
     22 F22        57.6092   -0.5922   10.4922 F           1 LGB      -0.1673
     23 F23        56.4117   -1.9271    9.1794 F           1 LGB      -0.1673
     24 F24        55.4869   -0.1225   10.0920 F           1 LGB      -0.1673
     25 H1         59.2119    1.2365    4.9976 H           1 LGB       0.0541
     26 H2         59.7779   -0.4705    4.9997 H           1 LGB       0.0541
     27 H3         58.7967   -1.0955    8.0487 H           1 LGB       0.0637
     28 H4         59.2251    1.9448    7.9877 H           1 LGB       0.0619
     29 H5         61.0393    1.6292    6.4245 H           1 LGB       0.0312
     30 H6         61.1814   -0.1035    6.8258 H           1 LGB       0.0312
     31 H7         56.9532    1.2881    8.5088 H           1 LGB       0.0794
     32 H8         52.3783    1.9161    5.0743 H           1 LGB       0.0636
     33 H9         54.5146    1.4473    5.9965 H           1 LGB       0.0538
     34 H10        57.1295   -0.4730    2.5463 H           1 LGB       0.0378
     35 H11        56.4208    0.3386    1.1614 H           1 LGB       0.0378
     36 H12        55.8221   -1.2556    1.6600 H           1 LGB       0.0378
     37 H13        60.9151    1.4832    9.2999 H           1 LGB       0.2099
@<TRIPOS>BOND
     1     1     2   1
     2     1     5   1
     3     2     3   1
     4     2     6   1
     5     3     4   1
     6     3     8   1
     7     4     5   1
     8     4    18   1
     9     6     7   1
    10     6     9   2
    11     7     8   1
    12     8    21   1
    13     9    10   1
    14    10    11  ar
    15    10    15  ar
    16    11    12  ar
    17    11    16   1
    18    12    13  ar
    19    12    17   1
    20    13    14  ar
    21    13    19   1
    22    14    15  ar
    23    19    20   3
    24    21    22   1
    25    21    23   1
    26    21    24   1
    27     1    25   1
    28     1    26   1
    29     3    27   1
    30     4    28   1
    31     5    29   1
    32     5    30   1
    33     8    31   1
    34    14    32   1
    35    15    33   1
    36    16    34   1
    37    16    35   1
    38    16    36   1
    39    18    37   1
@<TRIPOS>SUBSTRUCTURE
     1  LGB      1

