@<TRIPOS>MOLECULE
3g0w_ligand_044
    37    39
SMALL
GAST_HUCK
****
This file was generated by PARSER (from files_GN.cpp)

@<TRIPOS>ATOM
      1 C1         55.3922    1.8759    4.5888 C.3         1 LGB       0.0449
      2 N2         54.4089    1.2335    3.7959 N.pl3       1 LGB      -0.2354
      3 C3         53.1378    1.8137    3.8642 C.3         1 LGB       0.1199
      4 C4         53.3765    3.1953    4.5003 C.3         1 LGB       0.0850
      5 C5         54.6002    2.9233    5.3891 C.3         1 LGB      -0.0025
      6 C6         54.5114    0.4366    2.7119 C.2         1 LGB       0.2667
      7 O7         53.4169    0.5433    1.8987 O.3         1 LGB      -0.2358
      8 C8         52.6885    1.6814    2.3907 C.3         1 LGB       0.2188
      9 N9         55.3648   -0.5654    2.4200 N.2         1 LGB      -0.2946
     10 C10        56.4544   -1.2241    2.9076 C.ar        1 LGB       0.0001
     11 C11        57.6856   -0.6465    3.3302 C.ar        1 LGB      -0.0192
     12 C12        58.6615   -1.4817    3.9468 C.ar        1 LGB       0.0660
     13 C13        58.4984   -2.8965    3.9537 C.ar        1 LGB       0.0905
     14 C14        57.3178   -3.4590    3.4297 C.ar        1 LGB      -0.0438
     15 C15        56.2975   -2.6254    2.9472 C.ar        1 LGB      -0.0559
     16 C16        57.9836    0.7835    3.0535 C.3         1 LGB      -0.0320
     17 CL17       59.9995   -0.7831    4.7393 Cl          1 LGB      -0.0696
     18 O18        52.2554    3.6677    5.2373 O.3         1 LGB      -0.3892
     19 C19        59.4223   -3.7181    4.3888 C.1         1 LGB       0.0860
     20 N20        60.2432   -4.4371    4.7556 N.1         1 LGB      -0.3388
     21 C21        51.1613    1.4734    2.2013 C.3         1 LGB       0.4246
     22 F22        50.4650    2.5726    2.6299 F           1 LGB      -0.1673
     23 F23        50.7032    0.3624    2.8635 F           1 LGB      -0.1673
     24 F24        50.8700    1.2713    0.8733 F           1 LGB      -0.1673
     25 H1         56.0814    2.4417    3.9553 H           1 LGB       0.0541
     26 H2         55.9429    1.1883    5.2345 H           1 LGB       0.0541
     27 H3         52.5364    1.1840    4.5309 H           1 LGB       0.0637
     28 H4         53.6387    3.9265    3.7379 H           1 LGB       0.0619
     29 H5         55.1977    3.8278    5.5583 H           1 LGB       0.0312
     30 H6         54.2933    2.5079    6.3528 H           1 LGB       0.0312
     31 H7         53.0108    2.5576    1.8223 H           1 LGB       0.0794
     32 H8         57.1695   -4.4736    3.4257 H           1 LGB       0.0636
     33 H9         55.4148   -3.0549    2.6487 H           1 LGB       0.0538
     34 H10        57.2237    1.2484    2.4140 H           1 LGB       0.0378
     35 H11        58.9516    0.9122    2.5432 H           1 LGB       0.0378
     36 H12        58.0311    1.2980    4.0206 H           1 LGB       0.0378
     37 H13        52.5590    4.5115    5.6260 H           1 LGB       0.2099
@<TRIPOS>BOND
     1     1     2   1
     2     1     5   1
     3     2     3   1
     4     2     6   1
     5     3     4   1
     6     3     8   1
     7     4     5   1
     8     4    18   1
     9     6     7   1
    10     6     9   2
    11     7     8   1
    12     8    21   1
    13     9    10   1
    14    10    11  ar
    15    10    15  ar
    16    11    12  ar
    17    11    16   1
    18    12    13  ar
    19    12    17   1
    20    13    14  ar
    21    13    19   1
    22    14    15  ar
    23    19    20   3
    24    21    22   1
    25    21    23   1
    26    21    24   1
    27     1    25   1
    28     1    26   1
    29     3    27   1
    30     4    28   1
    31     5    29   1
    32     5    30   1
    33     8    31   1
    34    14    32   1
    35    15    33   1
    36    16    34   1
    37    16    35   1
    38    16    36   1
    39    18    37   1
@<TRIPOS>SUBSTRUCTURE
     1  LGB      1

