@<TRIPOS>MOLECULE
3g0w_ligand_060
    37    39
SMALL
GAST_HUCK
****
This file was generated by PARSER (from files_GN.cpp)

@<TRIPOS>ATOM
      1 C1         56.5784    1.2282    2.8264 C.3         1 LGB       0.0449
      2 N2         56.1797   -0.1378    2.9190 N.pl3       1 LGB      -0.2354
      3 C3         57.2460   -1.0357    2.8566 C.3         1 LGB       0.1199
      4 C4         58.4132   -0.2576    3.4764 C.3         1 LGB       0.0850
      5 C5         58.1239    1.1594    2.9466 C.3         1 LGB      -0.0025
      6 C6         55.0437   -0.7852    3.2582 C.2         1 LGB       0.2667
      7 O7         55.2537   -2.1304    3.3884 O.3         1 LGB      -0.2358
      8 C8         56.6720   -2.2425    3.6181 C.3         1 LGB       0.2188
      9 N9         53.7810   -0.3495    3.4535 N.2         1 LGB      -0.2946
     10 C10        53.0988    0.8248    3.4612 C.ar        1 LGB       0.0001
     11 C11        53.2451    1.8734    4.4157 C.ar        1 LGB      -0.0192
     12 C12        52.3698    2.9975    4.3524 C.ar        1 LGB       0.0660
     13 C13        51.3140    3.0275    3.4092 C.ar        1 LGB       0.0905
     14 C14        51.1474    1.9542    2.5144 C.ar        1 LGB      -0.0438
     15 C15        52.0194    0.8592    2.5532 C.ar        1 LGB      -0.0559
     16 C16        54.2273    1.7894    5.5262 C.3         1 LGB      -0.0320
     17 CL17       52.5504    4.3074    5.4336 Cl          1 LGB      -0.0696
     18 O18        59.6704   -0.7963    3.0771 O.3         1 LGB      -0.3892
     19 C19        50.4460    4.0026    3.3645 C.1         1 LGB       0.0860
     20 N20        49.6878    4.8636    3.3506 N.1         1 LGB      -0.3388
     21 C21        57.2692   -3.6047    3.1927 C.3         1 LGB       0.4246
     22 F22        58.5755   -3.7197    3.6123 F           1 LGB      -0.1673
     23 F23        57.2450   -3.7853    1.8297 F           1 LGB      -0.1673
     24 F24        56.5421   -4.6152    3.7682 F           1 LGB      -0.1673
     25 H1         56.1800    1.8236    3.6501 H           1 LGB       0.0541
     26 H2         56.2517    1.6599    1.8698 H           1 LGB       0.0541
     27 H3         57.4427   -1.2636    1.8028 H           1 LGB       0.0637
     28 H4         58.3531   -0.2593    4.5683 H           1 LGB       0.0619
     29 H5         58.5228    1.9201    3.6248 H           1 LGB       0.0312
     30 H6         58.5847    1.2767    1.9618 H           1 LGB       0.0312
     31 H7         56.8505   -2.1152    4.6908 H           1 LGB       0.0794
     32 H8         50.3762    1.9437    1.8358 H           1 LGB       0.0636
     33 H9         51.8667    0.0885    1.8951 H           1 LGB       0.0538
     34 H10        54.8140    0.8710    5.5091 H           1 LGB       0.0378
     35 H11        53.7253    1.8350    6.4925 H           1 LGB       0.0378
     36 H12        54.9203    2.6331    5.4777 H           1 LGB       0.0378
     37 H13        59.6732   -0.7544    2.0948 H           1 LGB       0.2099
@<TRIPOS>BOND
     1     1     2   1
     2     1     5   1
     3     2     3   1
     4     2     6   1
     5     3     4   1
     6     3     8   1
     7     4     5   1
     8     4    18   1
     9     6     7   1
    10     6     9   2
    11     7     8   1
    12     8    21   1
    13     9    10   1
    14    10    11  ar
    15    10    15  ar
    16    11    12  ar
    17    11    16   1
    18    12    13  ar
    19    12    17   1
    20    13    14  ar
    21    13    19   1
    22    14    15  ar
    23    19    20   3
    24    21    22   1
    25    21    23   1
    26    21    24   1
    27     1    25   1
    28     1    26   1
    29     3    27   1
    30     4    28   1
    31     5    29   1
    32     5    30   1
    33     8    31   1
    34    14    32   1
    35    15    33   1
    36    16    34   1
    37    16    35   1
    38    16    36   1
    39    18    37   1
@<TRIPOS>SUBSTRUCTURE
     1  LGB      1

