@<TRIPOS>MOLECULE
3g0w_ligand_023
    37    39
SMALL
GAST_HUCK
****
This file was generated by PARSER (from files_GN.cpp)

@<TRIPOS>ATOM
      1 C1         53.5376    1.4061    4.4519 C.3         1 LGB       0.0449
      2 N2         53.1736    1.6291    3.0850 N.pl3       1 LGB      -0.2354
      3 C3         53.5498    0.6137    2.1818 C.3         1 LGB       0.1199
      4 C4         53.9919   -0.5552    3.1035 C.3         1 LGB       0.0850
      5 C5         54.4792    0.1900    4.3721 C.3         1 LGB      -0.0025
      6 C6         52.0162    2.1957    2.7071 C.2         1 LGB       0.2667
      7 O7         51.3435    1.4860    1.7704 O.3         1 LGB      -0.2358
      8 C8         52.2674    0.4776    1.3096 C.3         1 LGB       0.2188
      9 N9         51.4839    3.3706    3.0954 N.2         1 LGB      -0.2946
     10 C10        51.8951    4.4995    3.7393 C.ar        1 LGB       0.0001
     11 C11        53.1674    5.1420    3.6120 C.ar        1 LGB      -0.0192
     12 C12        53.3937    6.3864    4.2810 C.ar        1 LGB       0.0660
     13 C13        52.3338    7.0175    4.9977 C.ar        1 LGB       0.0905
     14 C14        51.0744    6.4089    5.0420 C.ar        1 LGB      -0.0438
     15 C15        50.8599    5.1615    4.4385 C.ar        1 LGB      -0.0559
     16 C16        54.2075    4.5447    2.7100 C.3         1 LGB      -0.0320
     17 CL17       54.9202    7.1588    4.2589 Cl          1 LGB      -0.0696
     18 O18        55.0274   -1.3417    2.5136 O.3         1 LGB      -0.3892
     19 C19        52.4316    8.1979    5.5511 C.1         1 LGB       0.0860
     20 N20        52.4942    9.2693    5.9732 N.1         1 LGB      -0.3388
     21 C21        52.4826    0.6732   -0.2172 C.3         1 LGB       0.4246
     22 F22        52.9453    1.9337   -0.5210 F           1 LGB      -0.1673
     23 F23        51.2992    0.4855   -0.8899 F           1 LGB      -0.1673
     24 F24        53.3717   -0.2503   -0.7053 F           1 LGB      -0.1673
     25 H1         52.6513    1.1522    5.0524 H           1 LGB       0.0541
     26 H2         54.0259    2.2686    4.9056 H           1 LGB       0.0541
     27 H3         54.4065    0.9709    1.6030 H           1 LGB       0.0637
     28 H4         53.1440   -1.2016    3.3676 H           1 LGB       0.0619
     29 H5         54.4199   -0.4489    5.2601 H           1 LGB       0.0312
     30 H6         55.5174    0.5202    4.2311 H           1 LGB       0.0312
     31 H7         51.7942   -0.4944    1.4756 H           1 LGB       0.0794
     32 H8         50.2830    6.8737    5.4918 H           1 LGB       0.0636
     33 H9         49.9229    4.7627    4.5098 H           1 LGB       0.0538
     34 H10        54.7502    3.7600    3.2464 H           1 LGB       0.0378
     35 H11        53.7488    4.1410    1.8008 H           1 LGB       0.0378
     36 H12        54.9412    5.2633    2.3708 H           1 LGB       0.0378
     37 H13        55.0671   -2.1580    3.0573 H           1 LGB       0.2099
@<TRIPOS>BOND
     1     1     2   1
     2     1     5   1
     3     2     3   1
     4     2     6   1
     5     3     4   1
     6     3     8   1
     7     4     5   1
     8     4    18   1
     9     6     7   1
    10     6     9   2
    11     7     8   1
    12     8    21   1
    13     9    10   1
    14    10    11  ar
    15    10    15  ar
    16    11    12  ar
    17    11    16   1
    18    12    13  ar
    19    12    17   1
    20    13    14  ar
    21    13    19   1
    22    14    15  ar
    23    19    20   3
    24    21    22   1
    25    21    23   1
    26    21    24   1
    27     1    25   1
    28     1    26   1
    29     3    27   1
    30     4    28   1
    31     5    29   1
    32     5    30   1
    33     8    31   1
    34    14    32   1
    35    15    33   1
    36    16    34   1
    37    16    35   1
    38    16    36   1
    39    18    37   1
@<TRIPOS>SUBSTRUCTURE
     1  LGB      1

