@<TRIPOS>MOLECULE
3g0w_ligand_018
    37    39
SMALL
GAST_HUCK
****
This file was generated by PARSER (from files_GN.cpp)

@<TRIPOS>ATOM
      1 C1         55.1017    0.7758    4.7135 C.3         1 LGB       0.0449
      2 N2         55.9550    1.8586    5.0514 N.pl3       1 LGB      -0.2354
      3 C3         57.1938    1.4819    5.5814 C.3         1 LGB       0.1199
      4 C4         57.3923    0.0446    5.0692 C.3         1 LGB       0.0850
      5 C5         55.9387   -0.4729    5.0463 C.3         1 LGB      -0.0025
      6 C6         55.9536    3.1680    4.7307 C.2         1 LGB       0.2667
      7 O7         57.1829    3.7272    4.9090 O.3         1 LGB      -0.2358
      8 C8         58.0927    2.6252    5.0687 C.3         1 LGB       0.2188
      9 N9         54.9697    4.0226    4.3811 N.2         1 LGB      -0.2946
     10 C10        53.6500    4.2284    4.1298 C.ar        1 LGB       0.0001
     11 C11        53.1498    5.5629    4.1221 C.ar        1 LGB      -0.0192
     12 C12        51.7394    5.7757    4.0805 C.ar        1 LGB       0.0660
     13 C13        50.8538    4.6695    3.9966 C.ar        1 LGB       0.0905
     14 C14        51.3727    3.3668    3.9026 C.ar        1 LGB      -0.0438
     15 C15        52.7537    3.1551    3.9694 C.ar        1 LGB      -0.0559
     16 C16        54.0719    6.7411    4.1705 C.3         1 LGB      -0.0320
     17 CL17       51.1021    7.3557    4.1712 Cl          1 LGB      -0.0696
     18 O18        58.2457   -0.7153    5.9218 O.3         1 LGB      -0.3892
     19 C19        49.5548    4.7875    4.0080 C.1         1 LGB       0.0860
     20 N20        48.4104    4.8666    4.0179 N.1         1 LGB      -0.3388
     21 C21        59.2545    3.0034    6.0192 C.3         1 LGB       0.4246
     22 F22        60.1076    1.9406    6.2006 F           1 LGB      -0.1673
     23 F23        58.7829    3.4142    7.2421 F           1 LGB      -0.1673
     24 F24        59.9743    4.0414    5.4882 F           1 LGB      -0.1673
     25 H1         54.8869    0.7884    3.6415 H           1 LGB       0.0541
     26 H2         54.1821    0.7918    5.3010 H           1 LGB       0.0541
     27 H3         57.1120    1.4937    6.6755 H           1 LGB       0.0637
     28 H4         57.8045    0.0405    4.0538 H           1 LGB       0.0619
     29 H5         55.8015   -1.2635    4.3052 H           1 LGB       0.0312
     30 H6         55.6544   -0.8482    6.0331 H           1 LGB       0.0312
     31 H7         58.5037    2.3692    4.0850 H           1 LGB       0.0794
     32 H8         50.7554    2.5517    3.8178 H           1 LGB       0.0636
     33 H9         53.0833    2.2025    3.9030 H           1 LGB       0.0538
     34 H10        55.1294    6.4755    4.1915 H           1 LGB       0.0378
     35 H11        53.8653    7.3404    5.0601 H           1 LGB       0.0378
     36 H12        53.9148    7.3617    3.2844 H           1 LGB       0.0378
     37 H13        57.8582   -0.6285    6.8205 H           1 LGB       0.2099
@<TRIPOS>BOND
     1     1     2   1
     2     1     5   1
     3     2     3   1
     4     2     6   1
     5     3     4   1
     6     3     8   1
     7     4     5   1
     8     4    18   1
     9     6     7   1
    10     6     9   2
    11     7     8   1
    12     8    21   1
    13     9    10   1
    14    10    11  ar
    15    10    15  ar
    16    11    12  ar
    17    11    16   1
    18    12    13  ar
    19    12    17   1
    20    13    14  ar
    21    13    19   1
    22    14    15  ar
    23    19    20   3
    24    21    22   1
    25    21    23   1
    26    21    24   1
    27     1    25   1
    28     1    26   1
    29     3    27   1
    30     4    28   1
    31     5    29   1
    32     5    30   1
    33     8    31   1
    34    14    32   1
    35    15    33   1
    36    16    34   1
    37    16    35   1
    38    16    36   1
    39    18    37   1
@<TRIPOS>SUBSTRUCTURE
     1  LGB      1

