@<TRIPOS>MOLECULE
3g0w_ligand_032
    37    39
SMALL
GAST_HUCK
****
This file was generated by PARSER (from files_GN.cpp)

@<TRIPOS>ATOM
      1 C1         52.9225    1.2659    0.9144 C.3         1 LGB       0.0449
      2 N2         53.8334    1.6035    1.9491 N.pl3       1 LGB      -0.2354
      3 C3         53.2645    2.2222    3.0733 C.3         1 LGB       0.1199
      4 C4         51.7528    1.8782    2.9915 C.3         1 LGB       0.0850
      5 C5         51.6138    1.0371    1.6948 C.3         1 LGB      -0.0025
      6 C6         54.9905    0.9999    2.2709 C.2         1 LGB       0.2667
      7 O7         55.3474    1.1862    3.5672 O.3         1 LGB      -0.2358
      8 C8         54.1143    1.5955    4.1997 C.3         1 LGB       0.2188
      9 N9         55.6956    0.2400    1.4073 N.2         1 LGB      -0.2946
     10 C10        56.8124   -0.4708    1.6868 C.ar        1 LGB       0.0001
     11 C11        56.8659   -1.5546    2.6117 C.ar        1 LGB      -0.0192
     12 C12        58.1143   -2.2140    2.8237 C.ar        1 LGB       0.0660
     13 C13        59.2567   -1.8327    2.0631 C.ar        1 LGB       0.0905
     14 C14        59.1699   -0.7797    1.1349 C.ar        1 LGB      -0.0438
     15 C15        57.9560   -0.1143    0.9431 C.ar        1 LGB      -0.0559
     16 C16        55.6455   -1.9871    3.3519 C.3         1 LGB      -0.0320
     17 CL17       58.2487   -3.5017    3.9542 Cl          1 LGB      -0.0696
     18 O18        50.9831    3.0791    2.9336 O.3         1 LGB      -0.3892
     19 C19        60.3985   -2.4699    2.1205 C.1         1 LGB       0.0860
     20 N20        61.4232   -2.9924    2.1761 N.1         1 LGB      -0.3388
     21 C21        54.4144    2.5485    5.3958 C.3         1 LGB       0.4246
     22 F22        53.2251    2.9464    5.9735 F           1 LGB      -0.1673
     23 F23        55.1073    3.6715    4.9874 F           1 LGB      -0.1673
     24 F24        55.1769    1.9053    6.3360 F           1 LGB      -0.1673
     25 H1         53.2111    0.3656    0.3445 H           1 LGB       0.0541
     26 H2         52.8379    2.1079    0.2188 H           1 LGB       0.0541
     27 H3         53.4351    3.3025    2.9808 H           1 LGB       0.0637
     28 H4         51.4123    1.2953    3.8537 H           1 LGB       0.0619
     29 H5         51.5427   -0.0286    1.9511 H           1 LGB       0.0312
     30 H6         50.7401    1.3079    1.0933 H           1 LGB       0.0312
     31 H7         53.6397    0.6879    4.5969 H           1 LGB       0.0794
     32 H8         59.9820   -0.5054    0.5659 H           1 LGB       0.0636
     33 H9         57.9178    0.6386    0.2492 H           1 LGB       0.0538
     34 H10        54.7168   -1.5865    2.9228 H           1 LGB       0.0378
     35 H11        55.7212   -1.6359    4.3906 H           1 LGB       0.0378
     36 H12        55.5736   -3.0799    3.3547 H           1 LGB       0.0378
     37 H13        50.0420    2.8003    3.0397 H           1 LGB       0.2099
@<TRIPOS>BOND
     1     1     2   1
     2     1     5   1
     3     2     3   1
     4     2     6   1
     5     3     4   1
     6     3     8   1
     7     4     5   1
     8     4    18   1
     9     6     7   1
    10     6     9   2
    11     7     8   1
    12     8    21   1
    13     9    10   1
    14    10    11  ar
    15    10    15  ar
    16    11    12  ar
    17    11    16   1
    18    12    13  ar
    19    12    17   1
    20    13    14  ar
    21    13    19   1
    22    14    15  ar
    23    19    20   3
    24    21    22   1
    25    21    23   1
    26    21    24   1
    27     1    25   1
    28     1    26   1
    29     3    27   1
    30     4    28   1
    31     5    29   1
    32     5    30   1
    33     8    31   1
    34    14    32   1
    35    15    33   1
    36    16    34   1
    37    16    35   1
    38    16    36   1
    39    18    37   1
@<TRIPOS>SUBSTRUCTURE
     1  LGB      1

