@<TRIPOS>MOLECULE
3g0w_ligand_017
    37    39
SMALL
GAST_HUCK
****
This file was generated by PARSER (from files_GN.cpp)

@<TRIPOS>ATOM
      1 C1         52.2721    4.1497    5.4807 C.3         1 LGB       0.0449
      2 N2         52.3814    2.9006    4.8042 N.pl3       1 LGB      -0.2354
      3 C3         51.3679    2.6345    3.8683 C.3         1 LGB       0.1199
      4 C4         50.5776    3.9632    3.7520 C.3         1 LGB       0.0850
      5 C5         51.4638    4.9960    4.4800 C.3         1 LGB      -0.0025
      6 C6         53.5157    2.2462    4.4823 C.2         1 LGB       0.2667
      7 O7         53.3774    1.5461    3.3230 O.3         1 LGB      -0.2358
      8 C8         52.2402    2.1441    2.6840 C.3         1 LGB       0.2188
      9 N9         54.6782    2.4140    5.1509 N.2         1 LGB      -0.2946
     10 C10        55.9852    2.0165    5.2148 C.ar        1 LGB       0.0001
     11 C11        56.5651    0.7767    4.8002 C.ar        1 LGB      -0.0192
     12 C12        57.9735    0.5728    4.9641 C.ar        1 LGB       0.0660
     13 C13        58.7831    1.5801    5.5554 C.ar        1 LGB       0.0905
     14 C14        58.1928    2.7844    5.9785 C.ar        1 LGB      -0.0438
     15 C15        56.8160    2.9926    5.8060 C.ar        1 LGB      -0.0559
     16 C16        55.7500   -0.3339    4.2384 C.3         1 LGB      -0.0320
     17 CL17       58.7063   -0.8960    4.4808 Cl          1 LGB      -0.0696
     18 O18        49.3200    3.8633    4.4238 O.3         1 LGB      -0.3892
     19 C19        60.0710    1.4331    5.7520 C.1         1 LGB       0.0860
     20 N20        61.1995    1.2964    5.9282 N.1         1 LGB      -0.3388
     21 C21        51.5668    1.1276    1.7269 C.3         1 LGB       0.4246
     22 F22        50.4373    1.6597    1.1644 F           1 LGB      -0.1673
     23 F23        51.2245   -0.0310    2.3774 F           1 LGB      -0.1673
     24 F24        52.4290    0.7956    0.7120 F           1 LGB      -0.1673
     25 H1         53.2354    4.6225    5.6862 H           1 LGB       0.0541
     26 H2         51.7213    4.0141    6.4178 H           1 LGB       0.0541
     27 H3         50.7347    1.8255    4.2460 H           1 LGB       0.0637
     28 H4         50.4028    4.2444    2.7101 H           1 LGB       0.0619
     29 H5         52.1405    5.4701    3.7627 H           1 LGB       0.0312
     30 H6         50.8799    5.7707    4.9843 H           1 LGB       0.0312
     31 H7         52.5885    3.0037    2.1004 H           1 LGB       0.0794
     32 H8         58.7524    3.5267    6.4159 H           1 LGB       0.0636
     33 H9         56.4259    3.8867    6.1168 H           1 LGB       0.0538
     34 H10        54.6859   -0.1996    4.3677 H           1 LGB       0.0378
     35 H11        55.9827   -1.2763    4.7393 H           1 LGB       0.0378
     36 H12        55.9742   -0.4383    3.1697 H           1 LGB       0.0378
     37 H13        48.7817    4.6046    4.0738 H           1 LGB       0.2099
@<TRIPOS>BOND
     1     1     2   1
     2     1     5   1
     3     2     3   1
     4     2     6   1
     5     3     4   1
     6     3     8   1
     7     4     5   1
     8     4    18   1
     9     6     7   1
    10     6     9   2
    11     7     8   1
    12     8    21   1
    13     9    10   1
    14    10    11  ar
    15    10    15  ar
    16    11    12  ar
    17    11    16   1
    18    12    13  ar
    19    12    17   1
    20    13    14  ar
    21    13    19   1
    22    14    15  ar
    23    19    20   3
    24    21    22   1
    25    21    23   1
    26    21    24   1
    27     1    25   1
    28     1    26   1
    29     3    27   1
    30     4    28   1
    31     5    29   1
    32     5    30   1
    33     8    31   1
    34    14    32   1
    35    15    33   1
    36    16    34   1
    37    16    35   1
    38    16    36   1
    39    18    37   1
@<TRIPOS>SUBSTRUCTURE
     1  LGB      1

