@<TRIPOS>MOLECULE
3g0w_ligand_015
    37    39
SMALL
GAST_HUCK
****
This file was generated by PARSER (from files_GN.cpp)

@<TRIPOS>ATOM
      1 C1         53.8056   -0.7940    5.0585 C.3         1 LGB       0.0449
      2 N2         54.9339   -0.0378    4.6485 N.pl3       1 LGB      -0.2354
      3 C3         55.9255   -0.7633    3.9864 C.3         1 LGB       0.1199
      4 C4         55.1492   -1.9228    3.3271 C.3         1 LGB       0.0850
      5 C5         53.8767   -2.0693    4.1917 C.3         1 LGB      -0.0025
      6 C6         55.0431    1.2767    4.3882 C.2         1 LGB       0.2667
      7 O7         56.1625    1.5706    3.6660 O.3         1 LGB      -0.2358
      8 C8         56.5429    0.3209    3.0686 C.3         1 LGB       0.2188
      9 N9         54.0767    2.1789    4.6807 N.2         1 LGB      -0.2946
     10 C10        53.9978    3.5281    4.4888 C.ar        1 LGB       0.0001
     11 C11        52.7225    4.1575    4.3803 C.ar        1 LGB      -0.0192
     12 C12        52.6570    5.5539    4.0874 C.ar        1 LGB       0.0660
     13 C13        53.8485    6.3129    3.9529 C.ar        1 LGB       0.0905
     14 C14        55.0975    5.6891    4.1307 C.ar        1 LGB      -0.0438
     15 C15        55.1682    4.3167    4.4038 C.ar        1 LGB      -0.0559
     16 C16        51.4547    3.3839    4.5569 C.3         1 LGB      -0.0320
     17 CL17       51.1473    6.3294    3.8995 Cl          1 LGB      -0.0696
     18 O18        55.9280   -3.1174    3.2563 O.3         1 LGB      -0.3892
     19 C19        53.8438    7.5969    3.7074 C.1         1 LGB       0.0860
     20 N20        53.8428    8.7288    3.5201 N.1         1 LGB      -0.3388
     21 C21        58.0797    0.2091    2.9259 C.3         1 LGB       0.4246
     22 F22        58.4437   -1.0333    2.4635 F           1 LGB      -0.1673
     23 F23        58.7002    0.4364    4.1304 F           1 LGB      -0.1673
     24 F24        58.5419    1.1384    2.0299 F           1 LGB      -0.1673
     25 H1         52.8649   -0.2583    4.9025 H           1 LGB       0.0541
     26 H2         53.9005   -1.0473    6.1177 H           1 LGB       0.0541
     27 H3         56.6372   -1.1313    4.7312 H           1 LGB       0.0637
     28 H4         54.8594   -1.6572    2.3074 H           1 LGB       0.0619
     29 H5         52.9943   -2.1449    3.5539 H           1 LGB       0.0312
     30 H6         53.9206   -2.9624    4.8191 H           1 LGB       0.0312
     31 H7         56.0953    0.2834    2.0679 H           1 LGB       0.0794
     32 H8         55.9714    6.2211    4.0670 H           1 LGB       0.0636
     33 H9         56.0924    3.9060    4.5597 H           1 LGB       0.0538
     34 H10        50.8742    3.4127    3.6327 H           1 LGB       0.0378
     35 H11        51.5996    2.3363    4.8194 H           1 LGB       0.0378
     36 H12        50.8634    3.8321    5.3593 H           1 LGB       0.0378
     37 H13        56.3488   -3.2147    4.1358 H           1 LGB       0.2099
@<TRIPOS>BOND
     1     1     2   1
     2     1     5   1
     3     2     3   1
     4     2     6   1
     5     3     4   1
     6     3     8   1
     7     4     5   1
     8     4    18   1
     9     6     7   1
    10     6     9   2
    11     7     8   1
    12     8    21   1
    13     9    10   1
    14    10    11  ar
    15    10    15  ar
    16    11    12  ar
    17    11    16   1
    18    12    13  ar
    19    12    17   1
    20    13    14  ar
    21    13    19   1
    22    14    15  ar
    23    19    20   3
    24    21    22   1
    25    21    23   1
    26    21    24   1
    27     1    25   1
    28     1    26   1
    29     3    27   1
    30     4    28   1
    31     5    29   1
    32     5    30   1
    33     8    31   1
    34    14    32   1
    35    15    33   1
    36    16    34   1
    37    16    35   1
    38    16    36   1
    39    18    37   1
@<TRIPOS>SUBSTRUCTURE
     1  LGB      1

