@<TRIPOS>MOLECULE
3g0w_ligand_049
    37    39
SMALL
GAST_HUCK
****
This file was generated by PARSER (from files_GN.cpp)

@<TRIPOS>ATOM
      1 C1         55.4228    5.6109    3.2508 C.3         1 LGB       0.0449
      2 N2         54.0250    5.6009    3.5104 N.pl3       1 LGB      -0.2354
      3 C3         53.4420    4.3463    3.7221 C.3         1 LGB       0.1199
      4 C4         54.6343    3.4670    4.1477 C.3         1 LGB       0.0850
      5 C5         55.8266    4.1291    3.4198 C.3         1 LGB      -0.0025
      6 C6         53.2492    6.5926    3.9780 C.2         1 LGB       0.2667
      7 O7         52.1056    6.1160    4.5392 O.3         1 LGB      -0.2358
      8 C8         52.3334    4.7101    4.7399 C.3         1 LGB       0.2188
      9 N9         53.5560    7.8951    3.7905 N.2         1 LGB      -0.2946
     10 C10        53.1215    9.1631    4.0572 C.ar        1 LGB       0.0001
     11 C11        52.2924    9.6020    5.1370 C.ar        1 LGB      -0.0192
     12 C12        52.0171   10.9992    5.2887 C.ar        1 LGB       0.0660
     13 C13        52.4618   11.9215    4.2992 C.ar        1 LGB       0.0905
     14 C14        53.2510   11.4668    3.2254 C.ar        1 LGB      -0.0438
     15 C15        53.6008   10.1133    3.1331 C.ar        1 LGB      -0.0559
     16 C16        51.7012    8.5901    6.0489 C.3         1 LGB      -0.0320
     17 CL17       51.1636   11.6025    6.6429 Cl          1 LGB      -0.0696
     18 O18        54.4485    2.1043    3.7747 O.3         1 LGB      -0.3892
     19 C19        52.1671   13.1966    4.3314 C.1         1 LGB       0.0860
     20 N20        51.9002   14.3129    4.3528 N.1         1 LGB      -0.3388
     21 C21        51.0098    3.9153    4.5826 C.3         1 LGB       0.4246
     22 F22        51.2296    2.5636    4.6727 F           1 LGB      -0.1673
     23 F23        50.4040    4.1849    3.3785 F           1 LGB      -0.1673
     24 F24        50.1352    4.2738    5.5773 F           1 LGB      -0.1673
     25 H1         55.9477    6.2339    3.9802 H           1 LGB       0.0541
     26 H2         55.6282    5.9726    2.2411 H           1 LGB       0.0541
     27 H3         53.0227    3.9984    2.7705 H           1 LGB       0.0637
     28 H4         54.7902    3.5188    5.2290 H           1 LGB       0.0619
     29 H5         56.7463    4.0262    4.0019 H           1 LGB       0.0312
     30 H6         55.9733    3.6691    2.4374 H           1 LGB       0.0312
     31 H7         52.7058    4.5726    5.7601 H           1 LGB       0.0794
     32 H8         53.6020   12.1143    2.5105 H           1 LGB       0.0636
     33 H9         54.1880    9.8225    2.3475 H           1 LGB       0.0538
     34 H10        50.9743    8.0078    5.4806 H           1 LGB       0.0378
     35 H11        51.1683    8.9956    6.9034 H           1 LGB       0.0378
     36 H12        52.4869    7.9450    6.4334 H           1 LGB       0.0378
     37 H13        55.2606    1.6437    4.0723 H           1 LGB       0.2099
@<TRIPOS>BOND
     1     1     2   1
     2     1     5   1
     3     2     3   1
     4     2     6   1
     5     3     4   1
     6     3     8   1
     7     4     5   1
     8     4    18   1
     9     6     7   1
    10     6     9   2
    11     7     8   1
    12     8    21   1
    13     9    10   1
    14    10    11  ar
    15    10    15  ar
    16    11    12  ar
    17    11    16   1
    18    12    13  ar
    19    12    17   1
    20    13    14  ar
    21    13    19   1
    22    14    15  ar
    23    19    20   3
    24    21    22   1
    25    21    23   1
    26    21    24   1
    27     1    25   1
    28     1    26   1
    29     3    27   1
    30     4    28   1
    31     5    29   1
    32     5    30   1
    33     8    31   1
    34    14    32   1
    35    15    33   1
    36    16    34   1
    37    16    35   1
    38    16    36   1
    39    18    37   1
@<TRIPOS>SUBSTRUCTURE
     1  LGB      1

