@<TRIPOS>MOLECULE
3g0w_ligand_034
    37    39
SMALL
GAST_HUCK
****
This file was generated by PARSER (from files_GN.cpp)

@<TRIPOS>ATOM
      1 C1         56.1216    2.5940    3.2639 C.3         1 LGB       0.0449
      2 N2         55.1548    2.1377    4.2256 N.pl3       1 LGB      -0.2354
      3 C3         53.9298    2.8296    4.0749 C.3         1 LGB       0.1199
      4 C4         54.2021    4.0191    3.1180 C.3         1 LGB       0.0850
      5 C5         55.7401    4.0666    3.0624 C.3         1 LGB      -0.0025
      6 C6         54.8977    0.8338    4.4599 C.2         1 LGB       0.2667
      7 O7         53.6112    0.5040    4.1469 O.3         1 LGB      -0.2358
      8 C8         53.0343    1.6800    3.5696 C.3         1 LGB       0.2188
      9 N9         55.3992    0.1690    5.5210 N.2         1 LGB      -0.2946
     10 C10        56.2140   -0.1347    6.5632 C.ar        1 LGB       0.0001
     11 C11        57.4527    0.4914    6.8711 C.ar        1 LGB      -0.0192
     12 C12        58.0889    0.1864    8.1131 C.ar        1 LGB       0.0660
     13 C13        57.4836   -0.7278    9.0255 C.ar        1 LGB       0.0905
     14 C14        56.3000   -1.3906    8.6606 C.ar        1 LGB      -0.0438
     15 C15        55.6878   -1.1164    7.4342 C.ar        1 LGB      -0.0559
     16 C16        58.0665    1.4090    5.8810 C.3         1 LGB      -0.0320
     17 CL17       59.5868    0.8992    8.5147 Cl          1 LGB      -0.0696
     18 O18        53.5952    5.2402    3.6025 O.3         1 LGB      -0.3892
     19 C19        57.9745   -0.9610   10.2152 C.1         1 LGB       0.0860
     20 N20        58.4355   -1.1161   11.2557 N.1         1 LGB      -0.3388
     21 C21        51.5328    1.8601    3.9199 C.3         1 LGB       0.4246
     22 F22        51.0256    3.0170    3.3674 F           1 LGB      -0.1673
     23 F23        51.3379    1.8642    5.2933 F           1 LGB      -0.1673
     24 F24        50.8080    0.8174    3.3884 F           1 LGB      -0.1673
     25 H1         55.9642    2.0704    2.2805 H           1 LGB       0.0541
     26 H2         57.1902    2.5239    3.5285 H           1 LGB       0.0541
     27 H3         53.6216    3.1887    5.0686 H           1 LGB       0.0637
     28 H4         53.7795    3.8186    2.1212 H           1 LGB       0.0619
     29 H5         56.0960    4.4727    2.1037 H           1 LGB       0.0312
     30 H6         56.1378    4.6492    3.8929 H           1 LGB       0.0312
     31 H7         53.1378    1.5818    2.4829 H           1 LGB       0.0794
     32 H8         55.8590   -2.0712    9.2697 H           1 LGB       0.0636
     33 H9         54.7899   -1.5620    7.2329 H           1 LGB       0.0538
     34 H10        58.0433    0.8969    4.9249 H           1 LGB       0.0378
     35 H11        59.1110    1.6584    6.0545 H           1 LGB       0.0378
     36 H12        57.4839    2.3449    5.8317 H           1 LGB       0.0378
     37 H13        54.0073    5.3983    4.4872 H           1 LGB       0.2099
@<TRIPOS>BOND
     1     1     2   1
     2     1     5   1
     3     2     3   1
     4     2     6   1
     5     3     4   1
     6     3     8   1
     7     4     5   1
     8     4    18   1
     9     6     7   1
    10     6     9   2
    11     7     8   1
    12     8    21   1
    13     9    10   1
    14    10    11  ar
    15    10    15  ar
    16    11    12  ar
    17    11    16   1
    18    12    13  ar
    19    12    17   1
    20    13    14  ar
    21    13    19   1
    22    14    15  ar
    23    19    20   3
    24    21    22   1
    25    21    23   1
    26    21    24   1
    27     1    25   1
    28     1    26   1
    29     3    27   1
    30     4    28   1
    31     5    29   1
    32     5    30   1
    33     8    31   1
    34    14    32   1
    35    15    33   1
    36    16    34   1
    37    16    35   1
    38    16    36   1
    39    18    37   1
@<TRIPOS>SUBSTRUCTURE
     1  LGB      1

