@<TRIPOS>MOLECULE
3g2n_ligand_003
    37    38
SMALL
GAST_HUCK
****
This file was generated by PARSER (from files_GN.cpp)

@<TRIPOS>ATOM
      1 C9         36.4893   22.6196   30.3854 C.ar        1 OAK      -0.0419
      2 C10        37.6598   23.1284   30.9814 C.ar        1 OAK      -0.0562
      3 C11        38.2273   24.3220   30.5042 C.ar        1 OAK      -0.0575
      4 C12        37.6356   24.9984   29.4174 C.ar        1 OAK      -0.0562
      5 C13        36.4901   24.4663   28.7987 C.ar        1 OAK      -0.0419
      6 C8         35.8930   23.2780   29.2850 C.ar        1 OAK       0.0499
      7 C7         34.7315   22.7805   28.7242 C.2         1 OAK       0.2069
      8 O7         33.7634   22.6153   29.4582 O.2         1 OAK      -0.3846
      9 N1         34.6840   22.5241   27.4258 N.am        1 OAK      -0.2577
     10 C1         33.5544   22.0591   26.6790 C.3         1 OAK       0.1716
     11 O5         32.5525   23.0909   26.7217 O.3         1 OAK      -0.3437
     12 C5         31.3777   22.8788   25.9095 C.3         1 OAK       0.1127
     13 C6         30.4445   24.1218   26.0230 C.3         1 OAK       0.0730
     14 O6         31.1013   25.2702   26.5490 O.3         1 OAK      -0.3924
     15 C4         30.6754   21.5497   26.3214 C.3         1 OAK       0.1119
     16 O4         29.6058   21.2393   25.4300 O.3         1 OAK      -0.3865
     17 C3         31.6790   20.3653   26.3134 C.3         1 OAK       0.1138
     18 O3         31.0230   19.2111   26.8419 O.3         1 OAK      -0.3864
     19 C2         32.9601   20.6907   27.1345 C.3         1 OAK       0.1307
     20 O2         33.9097   19.6405   26.9599 O.3         1 OAK      -0.3844
     21 H1         36.0898   21.7507   30.7443 H           1 OAK       0.0669
     22 H2         38.0878   22.6368   31.7718 H           1 OAK       0.0629
     23 H3         39.0693   24.7008   30.9437 H           1 OAK       0.0653
     24 H4         38.0461   25.8715   29.0767 H           1 OAK       0.0629
     25 H5         36.0658   24.9799   28.0208 H           1 OAK       0.0669
     26 H6         35.4926   22.6909   26.9184 H           1 OAK       0.1871
     27 H7         33.9032   21.9560   25.6479 H           1 OAK       0.0896
     28 H8         31.6986   22.8012   24.8640 H           1 OAK       0.0647
     29 H9         29.5892   23.9180   26.6683 H           1 OAK       0.0584
     30 H10        30.0645   24.3785   25.0312 H           1 OAK       0.0584
     31 H11        31.5482   24.9540   27.3623 H           1 OAK       0.2095
     32 H12        30.2572   21.6577   27.3256 H           1 OAK       0.0647
     33 H13        29.1046   22.0724   25.3009 H           1 OAK       0.2100
     34 H14        31.9585   20.1494   25.2749 H           1 OAK       0.0647
     35 H15        31.4694   18.4441   26.4258 H           1 OAK       0.2100
     36 H16        32.6881   20.7374   28.1919 H           1 OAK       0.0668
     37 H17        34.1977   19.3783   27.8594 H           1 OAK       0.2101
@<TRIPOS>BOND
     1     1     2  ar
     2     1     6  ar
     3     2     3  ar
     4     3     4  ar
     5     4     5  ar
     6     5     6  ar
     7     6     7   1
     8     7     8   2
     9     7     9  am
    10     9    10   1
    11    10    11   1
    12    10    19   1
    13    11    12   1
    14    12    13   1
    15    12    15   1
    16    13    14   1
    17    15    16   1
    18    15    17   1
    19    17    18   1
    20    17    19   1
    21    19    20   1
    22     1    21   1
    23     2    22   1
    24     3    23   1
    25     4    24   1
    26     5    25   1
    27     9    26   1
    28    10    27   1
    29    12    28   1
    30    13    29   1
    31    13    30   1
    32    14    31   1
    33    15    32   1
    34    16    33   1
    35    17    34   1
    36    18    35   1
    37    19    36   1
    38    20    37   1
@<TRIPOS>SUBSTRUCTURE
     1  OAK      1

