@<TRIPOS>MOLECULE
3g2n_ligand_011
    37    38
SMALL
GAST_HUCK
****
This file was generated by PARSER (from files_GN.cpp)

@<TRIPOS>ATOM
      1 C9         33.4702   17.1002   28.0454 C.ar        1 OAK      -0.0419
      2 C10        34.0144   15.9915   28.7257 C.ar        1 OAK      -0.0562
      3 C11        33.8677   15.8705   30.1196 C.ar        1 OAK      -0.0575
      4 C12        33.1730   16.8651   30.8409 C.ar        1 OAK      -0.0562
      5 C13        32.6001   17.9558   30.1614 C.ar        1 OAK      -0.0419
      6 C8         32.7332   18.0749   28.7598 C.ar        1 OAK       0.0499
      7 C7         32.0804   19.0761   28.0872 C.2         1 OAK       0.2069
      8 O7         30.8661   18.9827   28.0275 O.2         1 OAK      -0.3846
      9 N1         32.7759   20.0877   27.5856 N.am        1 OAK      -0.2577
     10 C1         32.3115   21.1864   26.7781 C.3         1 OAK       0.1716
     11 O5         33.4863   22.0258   26.6308 O.3         1 OAK      -0.3437
     12 C5         33.3333   23.2541   25.8900 C.3         1 OAK       0.1127
     13 C6         34.7041   23.9756   25.7454 C.3         1 OAK       0.0730
     14 O6         35.0462   24.7811   26.8780 O.3         1 OAK      -0.3924
     15 C4         32.2562   24.1430   26.5778 C.3         1 OAK       0.1119
     16 O4         32.0090   25.3581   25.8705 O.3         1 OAK      -0.3865
     17 C3         30.9267   23.3600   26.6746 C.3         1 OAK       0.1138
     18 O3         29.9614   24.1506   27.3759 O.3         1 OAK      -0.3864
     19 C2         31.1282   22.0006   27.3951 C.3         1 OAK       0.1307
     20 O2         29.8866   21.2952   27.3055 O.3         1 OAK      -0.3844
     21 H1         33.5871   17.1719   27.0348 H           1 OAK       0.0669
     22 H2         34.5073   15.2638   28.2049 H           1 OAK       0.0629
     23 H3         34.2531   15.0598   30.6131 H           1 OAK       0.0653
     24 H4         33.0634   16.7758   31.8528 H           1 OAK       0.0629
     25 H5         32.0618   18.6443   30.6943 H           1 OAK       0.0669
     26 H6         33.7336   20.0564   27.7529 H           1 OAK       0.1871
     27 H7         32.0179   20.7964   25.7975 H           1 OAK       0.0896
     28 H8         32.9993   23.0002   24.8809 H           1 OAK       0.0647
     29 H9         34.6671   24.6342   24.8718 H           1 OAK       0.0584
     30 H10        35.4986   23.2409   25.5830 H           1 OAK       0.0584
     31 H11        35.8821   25.2392   26.6421 H           1 OAK       0.2095
     32 H12        32.5804   24.4047   27.5926 H           1 OAK       0.0647
     33 H13        32.8620   25.8364   25.8400 H           1 OAK       0.2100
     34 H14        30.5480   23.1761   25.6646 H           1 OAK       0.0647
     35 H15        29.1161   23.6579   27.3026 H           1 OAK       0.2100
     36 H16        31.3532   22.1846   28.4458 H           1 OAK       0.0668
     37 H17        29.7207   21.1521   26.3491 H           1 OAK       0.2101
@<TRIPOS>BOND
     1     1     2  ar
     2     1     6  ar
     3     2     3  ar
     4     3     4  ar
     5     4     5  ar
     6     5     6  ar
     7     6     7   1
     8     7     8   2
     9     7     9  am
    10     9    10   1
    11    10    11   1
    12    10    19   1
    13    11    12   1
    14    12    13   1
    15    12    15   1
    16    13    14   1
    17    15    16   1
    18    15    17   1
    19    17    18   1
    20    17    19   1
    21    19    20   1
    22     1    21   1
    23     2    22   1
    24     3    23   1
    25     4    24   1
    26     5    25   1
    27     9    26   1
    28    10    27   1
    29    12    28   1
    30    13    29   1
    31    13    30   1
    32    14    31   1
    33    15    32   1
    34    16    33   1
    35    17    34   1
    36    18    35   1
    37    19    36   1
    38    20    37   1
@<TRIPOS>SUBSTRUCTURE
     1  OAK      1

