@<TRIPOS>MOLECULE
3g2n_ligand_005
    37    38
SMALL
GAST_HUCK
****
This file was generated by PARSER (from files_GN.cpp)

@<TRIPOS>ATOM
      1 C9         37.7446   23.4158   29.8221 C.ar        1 OAK      -0.0419
      2 C10        39.0271   23.5128   30.3847 C.ar        1 OAK      -0.0562
      3 C11        39.5132   24.7538   30.8409 C.ar        1 OAK      -0.0575
      4 C12        38.7012   25.9001   30.7345 C.ar        1 OAK      -0.0562
      5 C13        37.4149   25.7966   30.1813 C.ar        1 OAK      -0.0419
      6 C8         36.9223   24.5599   29.7042 C.ar        1 OAK       0.0499
      7 C7         35.6343   24.4831   29.1741 C.2         1 OAK       0.2069
      8 O7         34.7379   24.9673   29.8501 O.2         1 OAK      -0.3846
      9 N1         35.3914   23.9059   27.9985 N.am        1 OAK      -0.2577
     10 C1         34.1308   23.8357   27.3009 C.3         1 OAK       0.1716
     11 O5         33.2379   24.8781   27.7087 O.3         1 OAK      -0.3437
     12 C5         31.9283   24.9067   27.1452 C.3         1 OAK       0.1127
     13 C6         31.1894   26.1192   27.7784 C.3         1 OAK       0.0730
     14 O6         30.9138   25.9330   29.1680 O.3         1 OAK      -0.3924
     15 C4         31.1996   23.5661   27.3698 C.3         1 OAK       0.1119
     16 O4         29.9435   23.5689   26.6743 O.3         1 OAK      -0.3865
     17 C3         32.0665   22.3743   26.8800 C.3         1 OAK       0.1138
     18 O3         31.4134   21.1461   27.2131 O.3         1 OAK      -0.3864
     19 C2         33.4995   22.4214   27.4738 C.3         1 OAK       0.1307
     20 O2         34.2913   21.4360   26.8100 O.3         1 OAK      -0.3844
     21 H1         37.4034   22.4970   29.5232 H           1 OAK       0.0669
     22 H2         39.6212   22.6806   30.4526 H           1 OAK       0.0629
     23 H3         40.4522   24.8232   31.2397 H           1 OAK       0.0653
     24 H4         39.0554   26.8025   31.0570 H           1 OAK       0.0629
     25 H5         36.8536   26.6482   30.1176 H           1 OAK       0.0669
     26 H6         36.1471   23.5153   27.5322 H           1 OAK       0.1871
     27 H7         34.3507   23.9817   26.2387 H           1 OAK       0.0896
     28 H8         32.0208   25.1046   26.0723 H           1 OAK       0.0647
     29 H9         30.2253   26.2851   27.2755 H           1 OAK       0.0584
     30 H10        31.8158   27.0244   27.6613 H           1 OAK       0.0584
     31 H11        31.2444   26.7561   29.6123 H           1 OAK       0.2095
     32 H12        30.9921   23.4357   28.4312 H           1 OAK       0.0647
     33 H13        29.4458   22.8009   27.0220 H           1 OAK       0.2100
     34 H14        32.1312   22.4085   25.7883 H           1 OAK       0.0647
     35 H15        30.7126   21.0204   26.5303 H           1 OAK       0.2100
     36 H16        33.4566   22.1714   28.5350 H           1 OAK       0.0668
     37 H17        35.2294   21.6164   27.0759 H           1 OAK       0.2101
@<TRIPOS>BOND
     1     1     2  ar
     2     1     6  ar
     3     2     3  ar
     4     3     4  ar
     5     4     5  ar
     6     5     6  ar
     7     6     7   1
     8     7     8   2
     9     7     9  am
    10     9    10   1
    11    10    11   1
    12    10    19   1
    13    11    12   1
    14    12    13   1
    15    12    15   1
    16    13    14   1
    17    15    16   1
    18    15    17   1
    19    17    18   1
    20    17    19   1
    21    19    20   1
    22     1    21   1
    23     2    22   1
    24     3    23   1
    25     4    24   1
    26     5    25   1
    27     9    26   1
    28    10    27   1
    29    12    28   1
    30    13    29   1
    31    13    30   1
    32    14    31   1
    33    15    32   1
    34    16    33   1
    35    17    34   1
    36    18    35   1
    37    19    36   1
    38    20    37   1
@<TRIPOS>SUBSTRUCTURE
     1  OAK      1

