@<TRIPOS>MOLECULE
3g2n_ligand_014
    37    38
SMALL
GAST_HUCK
****
This file was generated by PARSER (from files_GN.cpp)

@<TRIPOS>ATOM
      1 C9         34.5263   19.4942   30.9269 C.ar        1 OAK      -0.0419
      2 C10        35.3402   18.9241   31.9203 C.ar        1 OAK      -0.0562
      3 C11        36.5778   19.5131   32.2520 C.ar        1 OAK      -0.0575
      4 C12        36.9733   20.7102   31.6197 C.ar        1 OAK      -0.0562
      5 C13        36.1367   21.3152   30.6617 C.ar        1 OAK      -0.0419
      6 C8         34.9194   20.6950   30.2827 C.ar        1 OAK       0.0499
      7 C7         34.1480   21.2167   29.2663 C.2         1 OAK       0.2069
      8 O7         33.8203   22.3956   29.3277 O.2         1 OAK      -0.3846
      9 N1         33.8734   20.4497   28.2146 N.am        1 OAK      -0.2577
     10 C1         33.1931   20.8569   27.0194 C.3         1 OAK       0.1716
     11 O5         33.6943   22.1498   26.6598 O.3         1 OAK      -0.3437
     12 C5         33.0977   22.8284   25.5461 C.3         1 OAK       0.1127
     13 C6         33.8033   24.2125   25.4443 C.3         1 OAK       0.0730
     14 O6         34.5440   24.3174   24.2281 O.3         1 OAK      -0.3924
     15 C4         31.5524   22.9305   25.7473 C.3         1 OAK       0.1119
     16 O4         30.9454   23.5335   24.6004 O.3         1 OAK      -0.3865
     17 C3         30.9483   21.5211   26.0075 C.3         1 OAK       0.1138
     18 O3         29.5445   21.6238   26.2563 O.3         1 OAK      -0.3864
     19 C2         31.6500   20.8431   27.2152 C.3         1 OAK       0.1307
     20 O2         31.1840   19.5037   27.3961 O.3         1 OAK      -0.3844
     21 H1         33.6494   19.0317   30.6830 H           1 OAK       0.0669
     22 H2         35.0458   18.0639   32.3761 H           1 OAK       0.0629
     23 H3         37.1794   19.0722   32.9465 H           1 OAK       0.0653
     24 H4         37.8700   21.1406   31.8505 H           1 OAK       0.0629
     25 H5         36.4511   22.1723   30.2025 H           1 OAK       0.0669
     26 H6         34.2390   19.5571   28.2181 H           1 OAK       0.1871
     27 H7         33.4577   20.1444   26.2277 H           1 OAK       0.0896
     28 H8         33.2950   22.2454   24.6370 H           1 OAK       0.0647
     29 H9         34.5073   24.3599   26.2683 H           1 OAK       0.0584
     30 H10        33.0822   25.0313   25.4947 H           1 OAK       0.0584
     31 H11        33.8588   24.3826   23.5357 H           1 OAK       0.2095
     32 H12        31.3492   23.5689   26.6158 H           1 OAK       0.0647
     33 H13        30.0271   23.7452   24.8758 H           1 OAK       0.2100
     34 H14        31.0816   20.8960   25.1188 H           1 OAK       0.0647
     35 H15        29.2060   20.7030   26.2162 H           1 OAK       0.2100
     36 H16        31.4037   21.4022   28.1211 H           1 OAK       0.0668
     37 H17        31.4781   18.9962   26.6077 H           1 OAK       0.2101
@<TRIPOS>BOND
     1     1     2  ar
     2     1     6  ar
     3     2     3  ar
     4     3     4  ar
     5     4     5  ar
     6     5     6  ar
     7     6     7   1
     8     7     8   2
     9     7     9  am
    10     9    10   1
    11    10    11   1
    12    10    19   1
    13    11    12   1
    14    12    13   1
    15    12    15   1
    16    13    14   1
    17    15    16   1
    18    15    17   1
    19    17    18   1
    20    17    19   1
    21    19    20   1
    22     1    21   1
    23     2    22   1
    24     3    23   1
    25     4    24   1
    26     5    25   1
    27     9    26   1
    28    10    27   1
    29    12    28   1
    30    13    29   1
    31    13    30   1
    32    14    31   1
    33    15    32   1
    34    16    33   1
    35    17    34   1
    36    18    35   1
    37    19    36   1
    38    20    37   1
@<TRIPOS>SUBSTRUCTURE
     1  OAK      1

