@<TRIPOS>MOLECULE
3g2n_ligand_010
    37    38
SMALL
GAST_HUCK
****
This file was generated by PARSER (from files_GN.cpp)

@<TRIPOS>ATOM
      1 C9         33.1739   21.2580   26.0017 C.ar        1 OAK      -0.0419
      2 C10        33.7164   20.0973   25.4385 C.ar        1 OAK      -0.0562
      3 C11        32.8736   19.1109   24.9156 C.ar        1 OAK      -0.0575
      4 C12        31.4791   19.2941   24.9627 C.ar        1 OAK      -0.0562
      5 C13        30.9319   20.4538   25.5320 C.ar        1 OAK      -0.0419
      6 C8         31.7762   21.4657   26.0671 C.ar        1 OAK       0.0499
      7 C7         31.2108   22.6387   26.5773 C.2         1 OAK       0.2069
      8 O7         30.1836   23.0810   26.0504 O.2         1 OAK      -0.3846
      9 N1         31.8053   23.3334   27.5430 N.am        1 OAK      -0.2577
     10 C1         31.5311   24.6291   28.0960 C.3         1 OAK       0.1716
     11 O5         31.4908   24.4330   29.5211 O.3         1 OAK      -0.3437
     12 C5         31.4354   25.6479   30.3039 C.3         1 OAK       0.1127
     13 C6         31.5419   25.2075   31.7850 C.3         1 OAK       0.0730
     14 O6         31.3343   26.2848   32.6854 O.3         1 OAK      -0.3924
     15 C4         30.1587   26.4726   29.9289 C.3         1 OAK       0.1119
     16 O4         30.1213   27.7198   30.6121 O.3         1 OAK      -0.3865
     17 C3         30.1056   26.7301   28.4018 C.3         1 OAK       0.1138
     18 O3         28.8628   27.3642   28.0542 O.3         1 OAK      -0.3864
     19 C2         30.2633   25.4076   27.6064 C.3         1 OAK       0.1307
     20 O2         30.3809   25.6986   26.2101 O.3         1 OAK      -0.3844
     21 H1         33.8347   21.9530   26.3537 H           1 OAK       0.0669
     22 H2         34.7321   19.9672   25.3914 H           1 OAK       0.0629
     23 H3         33.2615   18.2554   24.4968 H           1 OAK       0.0653
     24 H4         30.8586   18.5866   24.5693 H           1 OAK       0.0629
     25 H5         29.9149   20.5364   25.5567 H           1 OAK       0.0669
     26 H6         32.5737   22.8983   27.9511 H           1 OAK       0.1871
     27 H7         32.4056   25.2255   27.8388 H           1 OAK       0.0896
     28 H8         32.3347   26.2477   30.0777 H           1 OAK       0.0647
     29 H9         32.5348   24.8017   31.9778 H           1 OAK       0.0584
     30 H10        30.8216   24.4250   31.9925 H           1 OAK       0.0584
     31 H11        32.1856   26.7872   32.7085 H           1 OAK       0.2095
     32 H12        29.2655   25.9267   30.2169 H           1 OAK       0.0647
     33 H13        29.9400   27.4852   31.5541 H           1 OAK       0.2100
     34 H14        30.9201   27.4013   28.1140 H           1 OAK       0.0647
     35 H15        28.5518   26.9089   27.2323 H           1 OAK       0.2100
     36 H16        29.3492   24.8384   27.7735 H           1 OAK       0.0668
     37 H17        30.1051   24.8825   25.7389 H           1 OAK       0.2101
@<TRIPOS>BOND
     1     1     2  ar
     2     1     6  ar
     3     2     3  ar
     4     3     4  ar
     5     4     5  ar
     6     5     6  ar
     7     6     7   1
     8     7     8   2
     9     7     9  am
    10     9    10   1
    11    10    11   1
    12    10    19   1
    13    11    12   1
    14    12    13   1
    15    12    15   1
    16    13    14   1
    17    15    16   1
    18    15    17   1
    19    17    18   1
    20    17    19   1
    21    19    20   1
    22     1    21   1
    23     2    22   1
    24     3    23   1
    25     4    24   1
    26     5    25   1
    27     9    26   1
    28    10    27   1
    29    12    28   1
    30    13    29   1
    31    13    30   1
    32    14    31   1
    33    15    32   1
    34    16    33   1
    35    17    34   1
    36    18    35   1
    37    19    36   1
    38    20    37   1
@<TRIPOS>SUBSTRUCTURE
     1  OAK      1

