@<TRIPOS>MOLECULE
3g2n_ligand_000
    37    38
SMALL
GAST_HUCK
****
This file was generated by PARSER (from files_GN.cpp)

@<TRIPOS>ATOM
      1 C9         31.8593   24.8789   31.9976 C.ar        1 OAK      -0.0419
      2 C10        32.3119   25.2503   33.2716 C.ar        1 OAK      -0.0562
      3 C11        33.5910   25.8268   33.4239 C.ar        1 OAK      -0.0575
      4 C12        34.4210   25.9910   32.2980 C.ar        1 OAK      -0.0562
      5 C13        33.9805   25.5845   31.0297 C.ar        1 OAK      -0.0419
      6 C8         32.6871   25.0219   30.8506 C.ar        1 OAK       0.0499
      7 C7         32.2411   24.5879   29.6096 C.2         1 OAK       0.2069
      8 O7         31.2768   25.1559   29.1033 O.2         1 OAK      -0.3846
      9 N1         32.7524   23.4853   29.0645 N.am        1 OAK      -0.2577
     10 C1         32.2449   22.8016   27.9133 C.3         1 OAK       0.1716
     11 O5         32.3615   21.3871   28.1921 O.3         1 OAK      -0.3437
     12 C5         31.8303   20.5432   27.1460 C.3         1 OAK       0.1127
     13 C6         31.8721   19.0735   27.6297 C.3         1 OAK       0.0730
     14 O6         33.1226   18.4338   27.3827 O.3         1 OAK      -0.3924
     15 C4         32.6070   20.7947   25.8140 C.3         1 OAK       0.1119
     16 O4         32.0515   20.0360   24.7415 O.3         1 OAK      -0.3865
     17 C3         32.5788   22.3043   25.4432 C.3         1 OAK       0.1138
     18 O3         33.4032   22.5107   24.2964 O.3         1 OAK      -0.3864
     19 C2         33.0401   23.1852   26.6384 C.3         1 OAK       0.1307
     20 O2         32.8236   24.5722   26.3737 O.3         1 OAK      -0.3844
     21 H1         30.9297   24.4486   31.9151 H           1 OAK       0.0669
     22 H2         31.7201   25.1053   34.0931 H           1 OAK       0.0629
     23 H3         33.9185   26.1029   34.3540 H           1 OAK       0.0653
     24 H4         35.3548   26.3915   32.4152 H           1 OAK       0.0629
     25 H5         34.6011   25.7042   30.2229 H           1 OAK       0.0669
     26 H6         33.5009   23.0652   29.5311 H           1 OAK       0.1871
     27 H7         31.1869   23.0447   27.7543 H           1 OAK       0.0896
     28 H8         30.7779   20.7863   26.9914 H           1 OAK       0.0647
     29 H9         31.1017   18.4952   27.1127 H           1 OAK       0.0584
     30 H10        31.6568   19.0221   28.6979 H           1 OAK       0.0584
     31 H11        33.6429   18.4762   28.2119 H           1 OAK       0.2095
     32 H12        33.6525   20.4931   25.9484 H           1 OAK       0.0647
     33 H13        32.1045   19.0960   25.0302 H           1 OAK       0.2100
     34 H14        31.5566   22.5857   25.1664 H           1 OAK       0.0647
     35 H15        33.2073   23.4121   23.9685 H           1 OAK       0.2100
     36 H16        34.1082   23.0267   26.8032 H           1 OAK       0.0668
     37 H17        32.9629   24.7070   25.4102 H           1 OAK       0.2101
@<TRIPOS>BOND
     1     1     2  ar
     2     1     6  ar
     3     2     3  ar
     4     3     4  ar
     5     4     5  ar
     6     5     6  ar
     7     6     7   1
     8     7     8   2
     9     7     9  am
    10     9    10   1
    11    10    11   1
    12    10    19   1
    13    11    12   1
    14    12    13   1
    15    12    15   1
    16    13    14   1
    17    15    16   1
    18    15    17   1
    19    17    18   1
    20    17    19   1
    21    19    20   1
    22     1    21   1
    23     2    22   1
    24     3    23   1
    25     4    24   1
    26     5    25   1
    27     9    26   1
    28    10    27   1
    29    12    28   1
    30    13    29   1
    31    13    30   1
    32    14    31   1
    33    15    32   1
    34    16    33   1
    35    17    34   1
    36    18    35   1
    37    19    36   1
    38    20    37   1
@<TRIPOS>SUBSTRUCTURE
     1  OAK      1

