@<TRIPOS>MOLECULE
3g2z_ligand_023
    22    23
SMALL
GAST_HUCK
****
This file was generated by PARSER (from files_GN.cpp)

@<TRIPOS>ATOM
      1 O13       -12.1466   59.0614   12.3440 O.2         1 GZ2      -0.4178
      2 C11       -11.1692   58.5438   11.8099 C.2         1 GZ2       0.0775
      3 C12       -10.3812   57.7170   12.5515 C.2         1 GZ2      -0.0164
      4 C7         -9.2061   57.2153   12.1153 C.2         1 GZ2       0.0672
      5 C8         -8.7276   57.4804   10.7540 C.3         1 GZ2       0.0190
      6 C9         -9.7752   58.1090    9.8005 C.3         1 GZ2      -0.0220
      7 C10       -10.7237   59.0903   10.5357 C.3         1 GZ2       0.0123
      8 N6         -8.4943   56.5034   13.0139 N.pl3       1 GZ2      -0.2078
      9 C5         -7.3959   55.7358   12.8468 C.2         1 GZ2       0.2841
     10 N4         -6.6306   55.4480   11.7875 N.pl3       1 GZ2      -0.1321
     11 N3         -5.7153   54.6719   12.1623 N.2         1 GZ2      -0.0778
     12 N2         -5.8422   54.4283   13.3583 N.2         1 GZ2      -0.1598
     13 N1         -6.8400   55.0346   13.8395 N.2         1 GZ2      -0.2093
     14 H1        -10.6945   57.4818   13.4700 H           1 GZ2       0.0170
     15 H2         -8.4063   56.5460   10.2953 H           1 GZ2       0.0529
     16 H3         -7.8628   58.1467   10.8297 H           1 GZ2       0.0529
     17 H4        -10.3755   57.3133    9.3565 H           1 GZ2       0.0320
     18 H5         -9.2712   58.6278    8.9843 H           1 GZ2       0.0320
     19 H6        -10.2049   60.0296   10.7177 H           1 GZ2       0.0470
     20 H7        -11.5830   59.2953    9.8958 H           1 GZ2       0.0470
     21 H8         -8.8179   56.5459   13.9277 H           1 GZ2       0.2327
     22 H9         -6.7376   55.8058   10.8945 H           1 GZ2       0.2694
@<TRIPOS>BOND
     1     1     2   2
     2     2     3   1
     3     2     7   1
     4     3     4   2
     5     4     5   1
     6     4     8   1
     7     5     6   1
     8     6     7   1
     9     8     9   1
    10     9    10   1
    11     9    13   2
    12    10    11   1
    13    11    12   2
    14    12    13   1
    15     3    14   1
    16     5    15   1
    17     5    16   1
    18     6    17   1
    19     6    18   1
    20     7    19   1
    21     7    20   1
    22     8    21   1
    23    10    22   1
@<TRIPOS>SUBSTRUCTURE
     1  GZ2      2

