@<TRIPOS>MOLECULE
3g2z_ligand_038
    22    23
SMALL
GAST_HUCK
****
This file was generated by PARSER (from files_GN.cpp)

@<TRIPOS>ATOM
      1 O13        -5.6664   51.2549    8.3440 O.2         1 GZ2      -0.4178
      2 C11        -5.6899   51.4266    9.5579 C.2         1 GZ2       0.0775
      3 C12        -5.7106   52.7029   10.0438 C.2         1 GZ2      -0.0164
      4 C7         -5.6114   52.9944   11.3585 C.2         1 GZ2       0.0672
      5 C8         -5.2591   51.9519   12.3282 C.3         1 GZ2       0.0190
      6 C9         -5.8284   50.5664   11.9127 C.3         1 GZ2      -0.0220
      7 C10        -5.5498   50.2595   10.4172 C.3         1 GZ2       0.0123
      8 N6         -5.6307   54.2784   11.7214 N.pl3       1 GZ2      -0.2078
      9 C5         -6.5966   54.8612   12.4544 C.2         1 GZ2       0.2841
     10 N4         -6.6733   56.1619   12.7293 N.pl3       1 GZ2      -0.1321
     11 N3         -7.7304   56.3622   13.3674 N.2         1 GZ2      -0.0778
     12 N2         -8.3363   55.3014   13.5176 N.2         1 GZ2      -0.1598
     13 N1         -7.7085   54.3385   12.9900 N.2         1 GZ2      -0.2093
     14 H1         -5.8732   53.4465    9.3998 H           1 GZ2       0.0170
     15 H2         -5.6295   52.1928   13.3274 H           1 GZ2       0.0529
     16 H3         -4.1680   51.8868   12.3842 H           1 GZ2       0.0529
     17 H4         -6.9117   50.5690   12.0898 H           1 GZ2       0.0320
     18 H5         -5.3855   49.7897   12.5393 H           1 GZ2       0.0320
     19 H6         -4.5326   49.8772   10.3093 H           1 GZ2       0.0470
     20 H7         -6.2431   49.4794   10.0922 H           1 GZ2       0.0470
     21 H8         -4.9790   54.8719   11.3043 H           1 GZ2       0.2327
     22 H9         -6.0427   56.8428   12.4516 H           1 GZ2       0.2694
@<TRIPOS>BOND
     1     1     2   2
     2     2     3   1
     3     2     7   1
     4     3     4   2
     5     4     5   1
     6     4     8   1
     7     5     6   1
     8     6     7   1
     9     8     9   1
    10     9    10   1
    11     9    13   2
    12    10    11   1
    13    11    12   2
    14    12    13   1
    15     3    14   1
    16     5    15   1
    17     5    16   1
    18     6    17   1
    19     6    18   1
    20     7    19   1
    21     7    20   1
    22     8    21   1
    23    10    22   1
@<TRIPOS>SUBSTRUCTURE
     1  GZ2      2

