@<TRIPOS>MOLECULE
3g2z_ligand_047
    22    23
SMALL
GAST_HUCK
****
This file was generated by PARSER (from files_GN.cpp)

@<TRIPOS>ATOM
      1 O13         0.1140   48.9981   10.0205 O.2         1 GZ2      -0.4178
      2 C11         0.1928   47.9644   10.6736 C.2         1 GZ2       0.0775
      3 C12        -0.4748   47.8740   11.8595 C.2         1 GZ2      -0.0164
      4 C7         -0.6327   46.7264   12.5497 C.2         1 GZ2       0.0672
      5 C8         -0.0565   45.4691   12.0422 C.3         1 GZ2       0.0190
      6 C9          1.1120   45.6764   11.0452 C.3         1 GZ2      -0.0220
      7 C10         0.8087   46.8084   10.0352 C.3         1 GZ2       0.0123
      8 N6         -1.3615   46.7928   13.6802 N.pl3       1 GZ2      -0.2078
      9 C5         -1.7850   45.8081   14.4976 C.2         1 GZ2       0.2841
     10 N4         -2.4537   46.0138   15.6334 N.pl3       1 GZ2      -0.1321
     11 N3         -2.7068   44.9014   16.1503 N.2         1 GZ2      -0.0778
     12 N2         -2.2590   44.0017   15.4461 N.2         1 GZ2      -0.1598
     13 N1         -1.6942   44.4765   14.4239 N.2         1 GZ2      -0.2093
     14 H1         -0.8753   48.7140   12.2243 H           1 GZ2       0.0170
     15 H2         -0.8522   44.8933   11.5606 H           1 GZ2       0.0529
     16 H3          0.3528   44.8761   12.8620 H           1 GZ2       0.0529
     17 H4          1.3194   44.7434   10.5123 H           1 GZ2       0.0320
     18 H5          2.0098   45.9454   11.6102 H           1 GZ2       0.0320
     19 H6          1.7482   47.1046    9.5620 H           1 GZ2       0.0470
     20 H7          0.1340   46.4355    9.2602 H           1 GZ2       0.0470
     21 H8         -1.6218   47.6887   13.9577 H           1 GZ2       0.2327
     22 H9         -2.6989   46.8758   16.0011 H           1 GZ2       0.2694
@<TRIPOS>BOND
     1     1     2   2
     2     2     3   1
     3     2     7   1
     4     3     4   2
     5     4     5   1
     6     4     8   1
     7     5     6   1
     8     6     7   1
     9     8     9   1
    10     9    10   1
    11     9    13   2
    12    10    11   1
    13    11    12   2
    14    12    13   1
    15     3    14   1
    16     5    15   1
    17     5    16   1
    18     6    17   1
    19     6    18   1
    20     7    19   1
    21     7    20   1
    22     8    21   1
    23    10    22   1
@<TRIPOS>SUBSTRUCTURE
     1  GZ2      2

