@<TRIPOS>MOLECULE
3g2z_ligand_028
    22    23
SMALL
GAST_HUCK
****
This file was generated by PARSER (from files_GN.cpp)

@<TRIPOS>ATOM
      1 O13       -13.3918   56.7559   11.0068 O.2         1 GZ2      -0.4178
      2 C11       -12.4364   56.1179   10.5856 C.2         1 GZ2       0.0775
      3 C12       -11.1787   56.6133   10.7728 C.2         1 GZ2      -0.0164
      4 C7        -10.0660   55.8743   10.5921 C.2         1 GZ2       0.0672
      5 C8        -10.1245   54.4937   10.1084 C.3         1 GZ2       0.0190
      6 C9        -11.4477   54.1830    9.3523 C.3         1 GZ2      -0.0220
      7 C10       -12.6752   54.7599   10.1066 C.3         1 GZ2       0.0123
      8 N6         -8.8823   56.4353   10.8426 N.pl3       1 GZ2      -0.2078
      9 C5         -8.2053   56.2684   11.9973 C.2         1 GZ2       0.2841
     10 N4         -7.0381   56.8321   12.2947 N.pl3       1 GZ2      -0.1321
     11 N3         -6.7196   56.4725   13.4545 N.2         1 GZ2      -0.0778
     12 N2         -7.5913   55.7403   13.9124 N.2         1 GZ2      -0.1598
     13 N1         -8.5327   55.5730   13.0893 N.2         1 GZ2      -0.2093
     14 H1        -11.0807   57.5500   11.1024 H           1 GZ2       0.0170
     15 H2        -10.0274   53.8130   10.9568 H           1 GZ2       0.0529
     16 H3         -9.2871   54.3058    9.4301 H           1 GZ2       0.0529
     17 H4        -11.5683   53.1056    9.2247 H           1 GZ2       0.0320
     18 H5        -11.4070   54.6377    8.3580 H           1 GZ2       0.0320
     19 H6        -13.5385   54.7521    9.4340 H           1 GZ2       0.0470
     20 H7        -12.9119   54.1261   10.9654 H           1 GZ2       0.0470
     21 H8         -8.5399   57.0863   10.2077 H           1 GZ2       0.2327
     22 H9         -6.5150   57.4031   11.7110 H           1 GZ2       0.2694
@<TRIPOS>BOND
     1     1     2   2
     2     2     3   1
     3     2     7   1
     4     3     4   2
     5     4     5   1
     6     4     8   1
     7     5     6   1
     8     6     7   1
     9     8     9   1
    10     9    10   1
    11     9    13   2
    12    10    11   1
    13    11    12   2
    14    12    13   1
    15     3    14   1
    16     5    15   1
    17     5    16   1
    18     6    17   1
    19     6    18   1
    20     7    19   1
    21     7    20   1
    22     8    21   1
    23    10    22   1
@<TRIPOS>SUBSTRUCTURE
     1  GZ2      2

