@<TRIPOS>MOLECULE
3g2z_ligand_061
    22    23
SMALL
GAST_HUCK
****
This file was generated by PARSER (from files_GN.cpp)

@<TRIPOS>ATOM
      1 O13        -2.8483   52.9158   13.5057 O.2         1 GZ2      -0.4178
      2 C11        -3.9130   52.8149   12.9102 C.2         1 GZ2       0.0775
      3 C12        -4.5992   53.9491   12.5943 C.2         1 GZ2      -0.0164
      4 C7         -5.6844   53.9669   11.7895 C.2         1 GZ2       0.0672
      5 C8         -6.2163   52.7182   11.2207 C.3         1 GZ2       0.0190
      6 C9         -5.7850   51.4456   11.9999 C.3         1 GZ2      -0.0220
      7 C10        -4.2877   51.5060   12.3948 C.3         1 GZ2       0.0123
      8 N6         -6.2018   55.1761   11.5230 N.pl3       1 GZ2      -0.2078
      9 C5         -7.1909   55.5183   10.6683 C.2         1 GZ2       0.2841
     10 N4         -7.6348   56.7636   10.5140 N.pl3       1 GZ2      -0.1321
     11 N3         -8.5435   56.7512    9.6462 N.2         1 GZ2      -0.0778
     12 N2         -8.7078   55.6050    9.2399 N.2         1 GZ2      -0.1598
     13 N1         -7.9218   54.7974    9.8125 N.2         1 GZ2      -0.2093
     14 H1         -4.2626   54.8111   12.9686 H           1 GZ2       0.0170
     15 H2         -5.8832   52.6413   10.1821 H           1 GZ2       0.0529
     16 H3         -7.3079   52.7386   11.2311 H           1 GZ2       0.0529
     17 H4         -5.9776   50.5526   11.3988 H           1 GZ2       0.0320
     18 H5         -6.3861   51.3692   12.9122 H           1 GZ2       0.0320
     19 H6         -4.0972   50.7386   13.1519 H           1 GZ2       0.0470
     20 H7         -3.6681   51.2861   11.5210 H           1 GZ2       0.0470
     21 H8         -5.7929   55.9235   11.9896 H           1 GZ2       0.2327
     22 H9         -7.3160   57.5429   10.9959 H           1 GZ2       0.2694
@<TRIPOS>BOND
     1     1     2   2
     2     2     3   1
     3     2     7   1
     4     3     4   2
     5     4     5   1
     6     4     8   1
     7     5     6   1
     8     6     7   1
     9     8     9   1
    10     9    10   1
    11     9    13   2
    12    10    11   1
    13    11    12   2
    14    12    13   1
    15     3    14   1
    16     5    15   1
    17     5    16   1
    18     6    17   1
    19     6    18   1
    20     7    19   1
    21     7    20   1
    22     8    21   1
    23    10    22   1
@<TRIPOS>SUBSTRUCTURE
     1  GZ2      2

