@<TRIPOS>MOLECULE
3g2z_ligand_056
    22    23
SMALL
GAST_HUCK
****
This file was generated by PARSER (from files_GN.cpp)

@<TRIPOS>ATOM
      1 O13        -4.8404   51.8717    7.0141 O.2         1 GZ2      -0.4178
      2 C11        -3.7556   51.8561    6.4481 C.2         1 GZ2       0.0775
      3 C12        -2.7781   52.7043    6.8748 C.2         1 GZ2      -0.0164
      4 C7         -1.4920   52.5884    6.4845 C.2         1 GZ2       0.0672
      5 C8         -1.0484   51.5081    5.6026 C.3         1 GZ2       0.0190
      6 C9         -2.1891   51.0216    4.6697 C.3         1 GZ2      -0.0220
      7 C10        -3.5120   50.8115    5.4598 C.3         1 GZ2       0.0123
      8 N6         -0.5794   53.4416    6.9354 N.pl3       1 GZ2      -0.2078
      9 C5          0.1603   53.2257    8.0437 C.2         1 GZ2       0.2841
     10 N4          1.1506   54.0007    8.4770 N.pl3       1 GZ2      -0.1321
     11 N3          1.6089   53.4893    9.5281 N.2         1 GZ2      -0.0778
     12 N2          0.9957   52.4590    9.7925 N.2         1 GZ2      -0.1598
     13 N1          0.0968   52.2269    8.9313 N.2         1 GZ2      -0.2093
     14 H1         -3.0222   53.4429    7.4987 H           1 GZ2       0.0170
     15 H2         -0.7024   50.6751    6.2206 H           1 GZ2       0.0529
     16 H3         -0.2132   51.8380    4.9785 H           1 GZ2       0.0529
     17 H4         -1.8968   50.0940    4.1712 H           1 GZ2       0.0320
     18 H5         -2.3557   51.7789    3.8973 H           1 GZ2       0.0320
     19 H6         -4.3429   50.7834    4.7490 H           1 GZ2       0.0470
     20 H7         -3.4740   49.8491    5.9765 H           1 GZ2       0.0470
     21 H8         -0.3778   54.2176    6.3917 H           1 GZ2       0.2327
     22 H9          1.4657   54.8097    8.0477 H           1 GZ2       0.2694
@<TRIPOS>BOND
     1     1     2   2
     2     2     3   1
     3     2     7   1
     4     3     4   2
     5     4     5   1
     6     4     8   1
     7     5     6   1
     8     6     7   1
     9     8     9   1
    10     9    10   1
    11     9    13   2
    12    10    11   1
    13    11    12   2
    14    12    13   1
    15     3    14   1
    16     5    15   1
    17     5    16   1
    18     6    17   1
    19     6    18   1
    20     7    19   1
    21     7    20   1
    22     8    21   1
    23    10    22   1
@<TRIPOS>SUBSTRUCTURE
     1  GZ2      2

