@<TRIPOS>MOLECULE
3g2z_ligand_065
    22    23
SMALL
GAST_HUCK
****
This file was generated by PARSER (from files_GN.cpp)

@<TRIPOS>ATOM
      1 O13        -8.8982   45.3598   11.9367 O.2         1 GZ2      -0.4178
      2 C11        -9.2321   46.2052   11.1150 C.2         1 GZ2       0.0775
      3 C12        -9.8744   47.3321   11.5423 C.2         1 GZ2      -0.0164
      4 C7        -10.1066   48.4086   10.7627 C.2         1 GZ2       0.0672
      5 C8         -9.6530   48.4179    9.3648 C.3         1 GZ2       0.0190
      6 C9         -9.4602   46.9995    8.7643 C.3         1 GZ2      -0.0220
      7 C10        -8.7375   46.0558    9.7513 C.3         1 GZ2       0.0123
      8 N6        -10.6959   49.4686   11.3514 N.pl3       1 GZ2      -0.2078
      9 C5        -10.7979   50.7567   10.9478 C.2         1 GZ2       0.2841
     10 N4        -11.4375   51.6953   11.6355 N.pl3       1 GZ2      -0.1321
     11 N3        -11.3348   52.7829   11.0143 N.2         1 GZ2      -0.0778
     12 N2        -10.7064   52.6092    9.9785 N.2         1 GZ2      -0.1598
     13 N1        -10.3380   51.4027    9.8671 N.2         1 GZ2      -0.2093
     14 H1        -10.1769   47.3529   12.4945 H           1 GZ2       0.0170
     15 H2         -8.7105   48.9708    9.3130 H           1 GZ2       0.0529
     16 H3        -10.3841   48.9114    8.7259 H           1 GZ2       0.0529
     17 H4         -8.8981   47.0673    7.8282 H           1 GZ2       0.0320
     18 H5        -10.4467   46.5826    8.5333 H           1 GZ2       0.0320
     19 H6         -8.8848   45.0257    9.4134 H           1 GZ2       0.0470
     20 H7         -7.6648   46.2671    9.7422 H           1 GZ2       0.0470
     21 H8        -11.1208   49.2849   12.2067 H           1 GZ2       0.2327
     22 H9        -11.8842   51.5669   12.4878 H           1 GZ2       0.2694
@<TRIPOS>BOND
     1     1     2   2
     2     2     3   1
     3     2     7   1
     4     3     4   2
     5     4     5   1
     6     4     8   1
     7     5     6   1
     8     6     7   1
     9     8     9   1
    10     9    10   1
    11     9    13   2
    12    10    11   1
    13    11    12   2
    14    12    13   1
    15     3    14   1
    16     5    15   1
    17     5    16   1
    18     6    17   1
    19     6    18   1
    20     7    19   1
    21     7    20   1
    22     8    21   1
    23    10    22   1
@<TRIPOS>SUBSTRUCTURE
     1  GZ2      2

