@<TRIPOS>MOLECULE
3g2z_ligand_016
    22    23
SMALL
GAST_HUCK
****
This file was generated by PARSER (from files_GN.cpp)

@<TRIPOS>ATOM
      1 O13        -8.1273   52.2085   13.1020 O.2         1 GZ2      -0.4178
      2 C11        -7.4729   53.2300   13.2641 C.2         1 GZ2       0.0775
      3 C12        -7.8795   54.3777   12.6507 C.2         1 GZ2      -0.0164
      4 C7         -7.1149   55.4901   12.5607 C.2         1 GZ2       0.0672
      5 C8         -5.7317   55.4658   13.0419 C.3         1 GZ2       0.0190
      6 C9         -5.5343   54.4952   14.2379 C.3         1 GZ2      -0.0220
      7 C10        -6.2053   53.1204   13.9728 C.3         1 GZ2       0.0123
      8 N6         -7.4766   56.6004   11.8958 N.pl3       1 GZ2      -0.2078
      9 C5         -8.7163   57.0622   11.6086 C.2         1 GZ2       0.2841
     10 N4         -8.9626   58.1573   10.8925 N.pl3       1 GZ2      -0.1321
     11 N3        -10.2084   58.3088   10.8248 N.2         1 GZ2      -0.0778
     12 N2        -10.7692   57.4064   11.4407 N.2         1 GZ2      -0.1598
     13 N1         -9.9294   56.6099   11.9481 N.2         1 GZ2      -0.2093
     14 H1         -8.7671   54.3661   12.2069 H           1 GZ2       0.0170
     15 H2         -5.4223   56.4653   13.3628 H           1 GZ2       0.0529
     16 H3         -5.0816   55.1614   12.2163 H           1 GZ2       0.0529
     17 H4         -5.9775   54.9451   15.1321 H           1 GZ2       0.0320
     18 H5         -4.4677   54.3514   14.4293 H           1 GZ2       0.0320
     19 H6         -5.5311   52.4984   13.3769 H           1 GZ2       0.0470
     20 H7         -6.3682   52.6223   14.9333 H           1 GZ2       0.0470
     21 H8         -6.7454   57.1761   11.6158 H           1 GZ2       0.2327
     22 H9         -8.2968   58.7348   10.4868 H           1 GZ2       0.2694
@<TRIPOS>BOND
     1     1     2   2
     2     2     3   1
     3     2     7   1
     4     3     4   2
     5     4     5   1
     6     4     8   1
     7     5     6   1
     8     6     7   1
     9     8     9   1
    10     9    10   1
    11     9    13   2
    12    10    11   1
    13    11    12   2
    14    12    13   1
    15     3    14   1
    16     5    15   1
    17     5    16   1
    18     6    17   1
    19     6    18   1
    20     7    19   1
    21     7    20   1
    22     8    21   1
    23    10    22   1
@<TRIPOS>SUBSTRUCTURE
     1  GZ2      2

