@<TRIPOS>MOLECULE
3g2z_ligand_007
    22    23
SMALL
GAST_HUCK
****
This file was generated by PARSER (from files_GN.cpp)

@<TRIPOS>ATOM
      1 O13        -7.8152   55.9848    3.5216 O.2         1 GZ2      -0.4178
      2 C11        -7.3584   56.1346    4.6490 C.2         1 GZ2       0.0775
      3 C12        -8.0904   56.8315    5.5687 C.2         1 GZ2      -0.0164
      4 C7         -7.8564   56.7903    6.8950 C.2         1 GZ2       0.0672
      5 C8         -6.7292   56.0108    7.4266 C.3         1 GZ2       0.0190
      6 C9         -5.5982   55.7640    6.3841 C.3         1 GZ2      -0.0220
      7 C10        -6.1769   55.3622    5.0088 C.3         1 GZ2       0.0123
      8 N6         -8.7066   57.4767    7.6842 N.pl3       1 GZ2      -0.2078
      9 C5         -8.8261   57.4863    9.0335 C.2         1 GZ2       0.2841
     10 N4         -9.6723   58.2580    9.7091 N.pl3       1 GZ2      -0.1321
     11 N3         -9.5155   58.0395   10.9382 N.2         1 GZ2      -0.0778
     12 N2         -8.6520   57.1833   11.0915 N.2         1 GZ2      -0.1598
     13 N1         -8.1850   56.8043    9.9857 N.2         1 GZ2      -0.2093
     14 H1         -8.8529   57.3787    5.2317 H           1 GZ2       0.0170
     15 H2         -7.1113   55.0498    7.7807 H           1 GZ2       0.0529
     16 H3         -6.2723   56.5341    8.2667 H           1 GZ2       0.0529
     17 H4         -4.9240   54.9869    6.7467 H           1 GZ2       0.0320
     18 H5         -5.0211   56.6852    6.2663 H           1 GZ2       0.0320
     19 H6         -5.3998   55.5050    4.2490 H           1 GZ2       0.0470
     20 H7         -6.4443   54.3005    5.0167 H           1 GZ2       0.0470
     21 H8         -9.3353   58.0588    7.2262 H           1 GZ2       0.2327
     22 H9        -10.3052   58.8896    9.3245 H           1 GZ2       0.2694
@<TRIPOS>BOND
     1     1     2   2
     2     2     3   1
     3     2     7   1
     4     3     4   2
     5     4     5   1
     6     4     8   1
     7     5     6   1
     8     6     7   1
     9     8     9   1
    10     9    10   1
    11     9    13   2
    12    10    11   1
    13    11    12   2
    14    12    13   1
    15     3    14   1
    16     5    15   1
    17     5    16   1
    18     6    17   1
    19     6    18   1
    20     7    19   1
    21     7    20   1
    22     8    21   1
    23    10    22   1
@<TRIPOS>SUBSTRUCTURE
     1  GZ2      2

