@<TRIPOS>MOLECULE
3g2z_ligand_029
    22    23
SMALL
GAST_HUCK
****
This file was generated by PARSER (from files_GN.cpp)

@<TRIPOS>ATOM
      1 O13        -7.4420   51.1894    8.7230 O.2         1 GZ2      -0.4178
      2 C11        -6.5641   50.9306    9.5319 C.2         1 GZ2       0.0775
      3 C12        -5.5633   51.8375    9.7365 C.2         1 GZ2      -0.0164
      4 C7         -4.4608   51.5890   10.4686 C.2         1 GZ2       0.0672
      5 C8         -4.2116   50.2408   10.9984 C.3         1 GZ2       0.0190
      6 C9         -5.5225   49.4575   11.2751 C.3         1 GZ2      -0.0220
      7 C10        -6.5324   49.5901   10.1034 C.3         1 GZ2       0.0123
      8 N6         -3.5213   52.5447   10.4804 N.pl3       1 GZ2      -0.2078
      9 C5         -2.6158   52.8393   11.4360 C.2         1 GZ2       0.2841
     10 N4         -1.7313   53.8307   11.3359 N.pl3       1 GZ2      -0.1321
     11 N3         -1.0724   53.8735   12.4024 N.2         1 GZ2      -0.0778
     12 N2         -1.4703   53.0002   13.1643 N.2         1 GZ2      -0.1598
     13 N1         -2.4001   52.3292   12.6495 N.2         1 GZ2      -0.2093
     14 H1         -5.6712   52.7398    9.3242 H           1 GZ2       0.0170
     15 H2         -3.6458   50.2662   11.9280 H           1 GZ2       0.0529
     16 H3         -3.6168   49.6902   10.2654 H           1 GZ2       0.0529
     17 H4         -5.9845   49.8559   12.1840 H           1 GZ2       0.0320
     18 H5         -5.2980   48.3997   11.4443 H           1 GZ2       0.0320
     19 H6         -6.2698   48.8830    9.3106 H           1 GZ2       0.0470
     20 H7         -7.5297   49.3287   10.4727 H           1 GZ2       0.0470
     21 H8         -3.5702   53.1853    9.7546 H           1 GZ2       0.2327
     22 H9         -1.6183   54.4155   10.5701 H           1 GZ2       0.2694
@<TRIPOS>BOND
     1     1     2   2
     2     2     3   1
     3     2     7   1
     4     3     4   2
     5     4     5   1
     6     4     8   1
     7     5     6   1
     8     6     7   1
     9     8     9   1
    10     9    10   1
    11     9    13   2
    12    10    11   1
    13    11    12   2
    14    12    13   1
    15     3    14   1
    16     5    15   1
    17     5    16   1
    18     6    17   1
    19     6    18   1
    20     7    19   1
    21     7    20   1
    22     8    21   1
    23    10    22   1
@<TRIPOS>SUBSTRUCTURE
     1  GZ2      2

