@<TRIPOS>MOLECULE
3g2z_ligand_052
    22    23
SMALL
GAST_HUCK
****
This file was generated by PARSER (from files_GN.cpp)

@<TRIPOS>ATOM
      1 O13        -4.7598   50.3235   12.4613 O.2         1 GZ2      -0.4178
      2 C11        -4.0729   51.3330   12.5568 C.2         1 GZ2       0.0775
      3 C12        -4.6335   52.4584   13.0794 C.2         1 GZ2      -0.0164
      4 C7         -4.0674   53.6849   13.0020 C.2         1 GZ2       0.0672
      5 C8         -2.7424   53.8598   12.3969 C.3         1 GZ2       0.0190
      6 C9         -1.9021   52.5519   12.3601 C.3         1 GZ2      -0.0220
      7 C10        -2.7650   51.3406   11.9163 C.3         1 GZ2       0.0123
      8 N6         -4.6661   54.7974   13.4568 N.pl3       1 GZ2      -0.2078
      9 C5         -5.9903   55.0714   13.5258 C.2         1 GZ2       0.2841
     10 N4         -6.5137   56.1998   14.0029 N.pl3       1 GZ2      -0.1321
     11 N3         -7.7628   56.1305   13.8830 N.2         1 GZ2      -0.0778
     12 N2         -8.0752   55.0581   13.3781 N.2         1 GZ2      -0.1598
     13 N1         -7.0513   54.3600   13.1264 N.2         1 GZ2      -0.2093
     14 H1         -5.4967   52.3576   13.5623 H           1 GZ2       0.0170
     15 H2         -2.1672   54.6188   12.9365 H           1 GZ2       0.0529
     16 H3         -2.8848   54.2173   11.3739 H           1 GZ2       0.0529
     17 H4         -1.5099   52.3530   13.3612 H           1 GZ2       0.0320
     18 H5         -1.0485   52.6694   11.6873 H           1 GZ2       0.0320
     19 H6         -2.9056   51.3681   10.8322 H           1 GZ2       0.0470
     20 H7         -2.2302   50.4201   12.1671 H           1 GZ2       0.0470
     21 H8         -4.0776   55.5204   13.7243 H           1 GZ2       0.2327
     22 H9         -6.0243   56.9604   14.3570 H           1 GZ2       0.2694
@<TRIPOS>BOND
     1     1     2   2
     2     2     3   1
     3     2     7   1
     4     3     4   2
     5     4     5   1
     6     4     8   1
     7     5     6   1
     8     6     7   1
     9     8     9   1
    10     9    10   1
    11     9    13   2
    12    10    11   1
    13    11    12   2
    14    12    13   1
    15     3    14   1
    16     5    15   1
    17     5    16   1
    18     6    17   1
    19     6    18   1
    20     7    19   1
    21     7    20   1
    22     8    21   1
    23    10    22   1
@<TRIPOS>SUBSTRUCTURE
     1  GZ2      2

