@<TRIPOS>MOLECULE
3g2z_ligand_068
    22    23
SMALL
GAST_HUCK
****
This file was generated by PARSER (from files_GN.cpp)

@<TRIPOS>ATOM
      1 O13       -10.1707   60.2090    9.7618 O.2         1 GZ2      -0.4178
      2 C11       -10.1289   59.3028   10.5836 C.2         1 GZ2       0.0775
      3 C12        -8.9768   58.5830   10.6982 C.2         1 GZ2      -0.0164
      4 C7         -8.8891   57.4322   11.3973 C.2         1 GZ2       0.0672
      5 C8        -10.0361   56.9270   12.1705 C.3         1 GZ2       0.0190
      6 C9        -11.0894   58.0215   12.4857 C.3         1 GZ2      -0.0220
      7 C10       -11.3702   58.8992   11.2385 C.3         1 GZ2       0.0123
      8 N6         -7.7090   56.7989   11.3936 N.pl3       1 GZ2      -0.2078
      9 C5         -7.5192   55.4628   11.4076 C.2         1 GZ2       0.2841
     10 N4         -6.3375   54.8563   11.4040 N.pl3       1 GZ2      -0.1321
     11 N3         -6.5454   53.6157   11.3630 N.2         1 GZ2      -0.0778
     12 N2         -7.7510   53.3893   11.3396 N.2         1 GZ2      -0.1598
     13 N1         -8.4086   54.4642   11.3625 N.2         1 GZ2      -0.2093
     14 H1         -8.1655   58.9123   10.2210 H           1 GZ2       0.0170
     15 H2         -9.6756   56.5351   13.1252 H           1 GZ2       0.0529
     16 H3        -10.5210   56.1174   11.6180 H           1 GZ2       0.0529
     17 H4        -10.6961   58.6661   13.2762 H           1 GZ2       0.0320
     18 H5        -12.0161   57.5649   12.8456 H           1 GZ2       0.0320
     19 H6        -11.9815   58.3413   10.5224 H           1 GZ2       0.0470
     20 H7        -11.9347   59.7833   11.5527 H           1 GZ2       0.0470
     21 H8         -6.9082   57.3374   11.2683 H           1 GZ2       0.2327
     22 H9         -5.4703   55.2953   11.4214 H           1 GZ2       0.2694
@<TRIPOS>BOND
     1     1     2   2
     2     2     3   1
     3     2     7   1
     4     3     4   2
     5     4     5   1
     6     4     8   1
     7     5     6   1
     8     6     7   1
     9     8     9   1
    10     9    10   1
    11     9    13   2
    12    10    11   1
    13    11    12   2
    14    12    13   1
    15     3    14   1
    16     5    15   1
    17     5    16   1
    18     6    17   1
    19     6    18   1
    20     7    19   1
    21     7    20   1
    22     8    21   1
    23    10    22   1
@<TRIPOS>SUBSTRUCTURE
     1  GZ2      2

