@<TRIPOS>MOLECULE
3g2z_ligand_010
    22    23
SMALL
GAST_HUCK
****
This file was generated by PARSER (from files_GN.cpp)

@<TRIPOS>ATOM
      1 O13        -1.1560   53.4075   13.0373 O.2         1 GZ2      -0.4178
      2 C11        -1.7268   52.3342   12.8911 C.2         1 GZ2       0.0775
      3 C12        -3.0844   52.3255   12.7571 C.2         1 GZ2      -0.0164
      4 C7         -3.8408   51.2097   12.8790 C.2         1 GZ2       0.0672
      5 C8         -3.2144   49.9123   13.1396 C.3         1 GZ2       0.0190
      6 C9         -1.7358   49.8400   12.6741 C.3         1 GZ2      -0.0220
      7 C10        -0.9504   51.1155   13.0814 C.3         1 GZ2       0.0123
      8 N6         -5.1802   51.2017   12.7871 N.pl3       1 GZ2      -0.2078
      9 C5         -6.0507   52.1679   13.1582 C.2         1 GZ2       0.2841
     10 N4         -5.8485   53.3502   13.7412 N.pl3       1 GZ2      -0.1321
     11 N3         -6.9683   53.8791   13.9470 N.2         1 GZ2      -0.0778
     12 N2         -7.8556   53.1381   13.5366 N.2         1 GZ2      -0.1598
     13 N1         -7.3765   52.0746   13.0493 N.2         1 GZ2      -0.2093
     14 H1         -3.5294   53.1838   12.5272 H           1 GZ2       0.0170
     15 H2         -3.7673   49.1095   12.6415 H           1 GZ2       0.0529
     16 H3         -3.2573   49.7305   14.2165 H           1 GZ2       0.0529
     17 H4         -1.7125   49.7438   11.5843 H           1 GZ2       0.0320
     18 H5         -1.2580   48.9550   13.0989 H           1 GZ2       0.0320
     19 H6         -0.6596   51.0466   14.1339 H           1 GZ2       0.0470
     20 H7         -0.0368   51.1636   12.4812 H           1 GZ2       0.0470
     21 H8         -5.5838   50.3635   12.5061 H           1 GZ2       0.2327
     22 H9         -4.9884   53.7204   13.9993 H           1 GZ2       0.2694
@<TRIPOS>BOND
     1     1     2   2
     2     2     3   1
     3     2     7   1
     4     3     4   2
     5     4     5   1
     6     4     8   1
     7     5     6   1
     8     6     7   1
     9     8     9   1
    10     9    10   1
    11     9    13   2
    12    10    11   1
    13    11    12   2
    14    12    13   1
    15     3    14   1
    16     5    15   1
    17     5    16   1
    18     6    17   1
    19     6    18   1
    20     7    19   1
    21     7    20   1
    22     8    21   1
    23    10    22   1
@<TRIPOS>SUBSTRUCTURE
     1  GZ2      2

