@<TRIPOS>MOLECULE
3g2z_ligand_064
    22    23
SMALL
GAST_HUCK
****
This file was generated by PARSER (from files_GN.cpp)

@<TRIPOS>ATOM
      1 O13         2.2983   51.8324    9.0366 O.2         1 GZ2      -0.4178
      2 C11         1.3539   52.2665    9.6813 C.2         1 GZ2       0.0775
      3 C12         0.8425   51.5166   10.6986 C.2         1 GZ2      -0.0164
      4 C7         -0.3422   51.7873   11.2801 C.2         1 GZ2       0.0672
      5 C8         -1.1414   52.9561   10.8991 C.3         1 GZ2       0.0190
      6 C9         -0.2664   54.0774   10.2779 C.3         1 GZ2      -0.0220
      7 C10         0.7284   53.5030    9.2316 C.3         1 GZ2       0.0123
      8 N6         -0.7284   51.0529   12.3222 N.pl3       1 GZ2      -0.2078
      9 C5         -1.4867   49.9404   12.2356 C.2         1 GZ2       0.2841
     10 N4         -1.9820   49.3098   11.1705 N.pl3       1 GZ2      -0.1321
     11 N3         -2.6062   48.2987   11.5802 N.2         1 GZ2      -0.0778
     12 N2         -2.5512   48.2456   12.8065 N.2         1 GZ2      -0.1598
     13 N1         -1.8865   49.2113   13.2786 N.2         1 GZ2      -0.2093
     14 H1          1.3717   50.7372   11.0230 H           1 GZ2       0.0170
     15 H2         -1.6633   53.3727   11.7668 H           1 GZ2       0.0529
     16 H3         -1.8986   52.6440   10.1729 H           1 GZ2       0.0529
     17 H4          0.3024   54.5559   11.0800 H           1 GZ2       0.0320
     18 H5         -0.8965   54.8387    9.8134 H           1 GZ2       0.0320
     19 H6          0.1977   53.2977    8.2984 H           1 GZ2       0.0470
     20 H7          1.4978   54.2531    9.0313 H           1 GZ2       0.0470
     21 H8         -0.4309   51.3263   13.2009 H           1 GZ2       0.2327
     22 H9         -1.8546   49.5640   10.2431 H           1 GZ2       0.2694
@<TRIPOS>BOND
     1     1     2   2
     2     2     3   1
     3     2     7   1
     4     3     4   2
     5     4     5   1
     6     4     8   1
     7     5     6   1
     8     6     7   1
     9     8     9   1
    10     9    10   1
    11     9    13   2
    12    10    11   1
    13    11    12   2
    14    12    13   1
    15     3    14   1
    16     5    15   1
    17     5    16   1
    18     6    17   1
    19     6    18   1
    20     7    19   1
    21     7    20   1
    22     8    21   1
    23    10    22   1
@<TRIPOS>SUBSTRUCTURE
     1  GZ2      2

