@<TRIPOS>MOLECULE
3g2z_ligand_042
    22    23
SMALL
GAST_HUCK
****
This file was generated by PARSER (from files_GN.cpp)

@<TRIPOS>ATOM
      1 O13       -10.1462   54.5156   10.0756 O.2         1 GZ2      -0.4178
      2 C11        -9.4669   54.1351   11.0227 C.2         1 GZ2       0.0775
      3 C12        -8.6975   55.0387   11.6941 C.2         1 GZ2      -0.0164
      4 C7         -7.6832   54.6823   12.5133 C.2         1 GZ2       0.0672
      5 C8         -7.4306   53.2662   12.8292 C.3         1 GZ2       0.0190
      6 C9         -8.6805   52.3710   12.6082 C.3         1 GZ2      -0.0220
      7 C10        -9.3580   52.6989   11.2483 C.3         1 GZ2       0.0123
      8 N6         -6.9357   55.6797   13.0077 N.pl3       1 GZ2      -0.2078
      9 C5         -5.5915   55.7086   13.1553 C.2         1 GZ2       0.2841
     10 N4         -4.9251   56.7760   13.5825 N.pl3       1 GZ2      -0.1321
     11 N3         -3.7012   56.5082   13.5344 N.2         1 GZ2      -0.0778
     12 N2         -3.5393   55.3582   13.1218 N.2         1 GZ2      -0.1598
     13 N1         -4.6462   54.8039   12.8698 N.2         1 GZ2      -0.2093
     14 H1         -8.8569   56.0041   11.5120 H           1 GZ2       0.0170
     15 H2         -7.1185   53.1652   13.8739 H           1 GZ2       0.0529
     16 H3         -6.6191   52.9051   12.1916 H           1 GZ2       0.0529
     17 H4         -9.3907   52.5616   13.4189 H           1 GZ2       0.0320
     18 H5         -8.4020   51.3133   12.6465 H           1 GZ2       0.0320
     19 H6         -8.7740   52.2601   10.4325 H           1 GZ2       0.0470
     20 H7        -10.3536   52.2429   11.2366 H           1 GZ2       0.0470
     21 H8         -7.3966   56.5227   13.1778 H           1 GZ2       0.2327
     22 H9         -5.3069   57.6169   13.8809 H           1 GZ2       0.2694
@<TRIPOS>BOND
     1     1     2   2
     2     2     3   1
     3     2     7   1
     4     3     4   2
     5     4     5   1
     6     4     8   1
     7     5     6   1
     8     6     7   1
     9     8     9   1
    10     9    10   1
    11     9    13   2
    12    10    11   1
    13    11    12   2
    14    12    13   1
    15     3    14   1
    16     5    15   1
    17     5    16   1
    18     6    17   1
    19     6    18   1
    20     7    19   1
    21     7    20   1
    22     8    21   1
    23    10    22   1
@<TRIPOS>SUBSTRUCTURE
     1  GZ2      2

