@<TRIPOS>MOLECULE
3g2z_ligand_000
    22    23
SMALL
GAST_HUCK
****
This file was generated by PARSER (from files_GN.cpp)

@<TRIPOS>ATOM
      1 O13        -1.1588   50.4763    7.0682 O.2         1 GZ2      -0.4178
      2 C11        -1.0982   51.6608    7.3640 C.2         1 GZ2       0.0775
      3 C12        -0.9290   52.0152    8.6744 C.2         1 GZ2      -0.0164
      4 C7         -0.5908   53.2665    9.0492 C.2         1 GZ2       0.0672
      5 C8         -0.2923   54.2980    8.0581 C.3         1 GZ2       0.0190
      6 C9         -1.1820   54.1096    6.7966 C.3         1 GZ2      -0.0220
      7 C10        -1.0982   52.6395    6.2823 C.3         1 GZ2       0.0123
      8 N6         -0.2569   53.5044   10.3176 N.pl3       1 GZ2      -0.2078
      9 C5         -1.1515   53.6642   11.3120 C.2         1 GZ2       0.2841
     10 N4         -2.4789   53.7188   11.2732 N.pl3       1 GZ2      -0.1321
     11 N3         -2.8985   53.8969   12.4475 N.2         1 GZ2      -0.0778
     12 N2         -1.9408   53.9434   13.2114 N.2         1 GZ2      -0.1598
     13 N1         -0.8464   53.8219   12.6033 N.2         1 GZ2      -0.2093
     14 H1         -1.0268   51.3071    9.3688 H           1 GZ2       0.0170
     15 H2          0.7617   54.2070    7.7826 H           1 GZ2       0.0529
     16 H3         -0.4628   55.2967    8.4703 H           1 GZ2       0.0529
     17 H4         -0.8712   54.8040    6.0130 H           1 GZ2       0.0320
     18 H5         -2.2206   54.3397    7.0611 H           1 GZ2       0.0320
     19 H6         -1.9523   52.4518    5.6264 H           1 GZ2       0.0470
     20 H7         -0.1842   52.5200    5.6969 H           1 GZ2       0.0470
     21 H8          0.6846   53.5894   10.5180 H           1 GZ2       0.2327
     22 H9         -3.0323   53.7200   10.4692 H           1 GZ2       0.2694
@<TRIPOS>BOND
     1     1     2   2
     2     2     3   1
     3     2     7   1
     4     3     4   2
     5     4     5   1
     6     4     8   1
     7     5     6   1
     8     6     7   1
     9     8     9   1
    10     9    10   1
    11     9    13   2
    12    10    11   1
    13    11    12   2
    14    12    13   1
    15     3    14   1
    16     5    15   1
    17     5    16   1
    18     6    17   1
    19     6    18   1
    20     7    19   1
    21     7    20   1
    22     8    21   1
    23    10    22   1
@<TRIPOS>SUBSTRUCTURE
     1  GZ2      2

