@<TRIPOS>MOLECULE
3g2z_ligand_026
    22    23
SMALL
GAST_HUCK
****
This file was generated by PARSER (from files_GN.cpp)

@<TRIPOS>ATOM
      1 O13       -10.7910   58.7218   11.5185 O.2         1 GZ2      -0.4178
      2 C11        -9.8206   58.1269   11.0736 C.2         1 GZ2       0.0775
      3 C12        -9.5900   58.1798    9.7271 C.2         1 GZ2      -0.0164
      4 C7         -8.7633   57.3311    9.0810 C.2         1 GZ2       0.0672
      5 C8         -7.9578   56.3533    9.8242 C.3         1 GZ2       0.0190
      6 C9         -7.8600   56.6402   11.3531 C.3         1 GZ2      -0.0220
      7 C10        -9.2425   57.0691   11.8945 C.3         1 GZ2       0.0123
      8 N6         -8.7571   57.3809    7.7338 N.pl3       1 GZ2      -0.2078
      9 C5         -8.1817   56.5268    6.8585 C.2         1 GZ2       0.2841
     10 N4         -8.2125   56.6597    5.5396 N.pl3       1 GZ2      -0.1321
     11 N3         -7.5909   55.6954    5.0415 N.2         1 GZ2      -0.0778
     12 N2         -7.1641   54.9700    5.9277 N.2         1 GZ2      -0.1598
     13 N1         -7.4879   55.4056    7.0540 N.2         1 GZ2      -0.2093
     14 H1        -10.1000   58.8526    9.1953 H           1 GZ2       0.0170
     15 H2         -6.9443   56.3454    9.4320 H           1 GZ2       0.0529
     16 H3         -8.3990   55.3653    9.6738 H           1 GZ2       0.0529
     17 H4         -7.1412   57.4406   11.5307 H           1 GZ2       0.0320
     18 H5         -7.5161   55.7521   11.8895 H           1 GZ2       0.0320
     19 H6         -9.9182   56.2130   11.8812 H           1 GZ2       0.0470
     20 H7         -9.1384   57.4007   12.9367 H           1 GZ2       0.0470
     21 H8         -9.2603   58.1260    7.3323 H           1 GZ2       0.2327
     22 H9         -8.6329   57.3865    5.0531 H           1 GZ2       0.2694
@<TRIPOS>BOND
     1     1     2   2
     2     2     3   1
     3     2     7   1
     4     3     4   2
     5     4     5   1
     6     4     8   1
     7     5     6   1
     8     6     7   1
     9     8     9   1
    10     9    10   1
    11     9    13   2
    12    10    11   1
    13    11    12   2
    14    12    13   1
    15     3    14   1
    16     5    15   1
    17     5    16   1
    18     6    17   1
    19     6    18   1
    20     7    19   1
    21     7    20   1
    22     8    21   1
    23    10    22   1
@<TRIPOS>SUBSTRUCTURE
     1  GZ2      2

