@<TRIPOS>MOLECULE
3g2z_ligand_040
    22    23
SMALL
GAST_HUCK
****
This file was generated by PARSER (from files_GN.cpp)

@<TRIPOS>ATOM
      1 O13       -12.8729   56.7233    6.5684 O.2         1 GZ2      -0.4178
      2 C11       -11.8573   56.9634    5.9318 C.2         1 GZ2       0.0775
      3 C12       -10.6433   56.7034    6.4964 C.2         1 GZ2      -0.0164
      4 C7         -9.4739   57.1653    5.9957 C.2         1 GZ2       0.0672
      5 C8         -9.4632   57.9867    4.7806 C.3         1 GZ2       0.0190
      6 C9        -10.6651   57.6923    3.8461 C.3         1 GZ2      -0.0220
      7 C10       -11.9926   57.6437    4.6507 C.3         1 GZ2       0.0123
      8 N6         -8.2648   56.9635    6.5407 N.pl3       1 GZ2      -0.2078
      9 C5         -7.9241   56.4960    7.7583 C.2         1 GZ2       0.2841
     10 N4         -6.6662   56.3530    8.1625 N.pl3       1 GZ2      -0.1321
     11 N3         -6.6842   55.9168    9.3378 N.2         1 GZ2      -0.0778
     12 N2         -7.8408   55.7847    9.7166 N.2         1 GZ2      -0.1598
     13 N1         -8.6506   56.1203    8.8180 N.2         1 GZ2      -0.2093
     14 H1        -10.6416   56.1227    7.2952 H           1 GZ2       0.0170
     15 H2         -8.5417   57.8300    4.2120 H           1 GZ2       0.0529
     16 H3         -9.4949   59.0386    5.0810 H           1 GZ2       0.0529
     17 H4        -10.5030   56.7273    3.3546 H           1 GZ2       0.0320
     18 H5        -10.7233   58.4605    3.0709 H           1 GZ2       0.0320
     19 H6        -12.3391   58.6668    4.8298 H           1 GZ2       0.0470
     20 H7        -12.7413   57.1302    4.0395 H           1 GZ2       0.0470
     21 H8         -7.5196   57.2360    5.9860 H           1 GZ2       0.2327
     22 H9         -5.8757   56.5707    7.6482 H           1 GZ2       0.2694
@<TRIPOS>BOND
     1     1     2   2
     2     2     3   1
     3     2     7   1
     4     3     4   2
     5     4     5   1
     6     4     8   1
     7     5     6   1
     8     6     7   1
     9     8     9   1
    10     9    10   1
    11     9    13   2
    12    10    11   1
    13    11    12   2
    14    12    13   1
    15     3    14   1
    16     5    15   1
    17     5    16   1
    18     6    17   1
    19     6    18   1
    20     7    19   1
    21     7    20   1
    22     8    21   1
    23    10    22   1
@<TRIPOS>SUBSTRUCTURE
     1  GZ2      2

