@<TRIPOS>MOLECULE
3g2z_ligand_036
    22    23
SMALL
GAST_HUCK
****
This file was generated by PARSER (from files_GN.cpp)

@<TRIPOS>ATOM
      1 O13         0.6776   46.1504    7.3160 O.2         1 GZ2      -0.4178
      2 C11         0.1654   45.4227    8.1603 C.2         1 GZ2       0.0775
      3 C12         0.4013   45.6587    9.4845 C.2         1 GZ2      -0.0164
      4 C7         -0.0843   44.8745   10.4764 C.2         1 GZ2       0.0672
      5 C8         -0.7517   43.6023   10.1639 C.3         1 GZ2       0.0190
      6 C9         -1.4260   43.5945    8.7664 C.3         1 GZ2      -0.0220
      7 C10        -0.4746   44.1978    7.6989 C.3         1 GZ2       0.0123
      8 N6          0.2679   45.1622   11.7340 N.pl3       1 GZ2      -0.2078
      9 C5         -0.5517   45.6630   12.6879 C.2         1 GZ2       0.2841
     10 N4         -0.2219   45.9138   13.9526 N.pl3       1 GZ2      -0.1321
     11 N3         -1.2212   46.4218   14.5237 N.2         1 GZ2      -0.0778
     12 N2         -2.1485   46.5187   13.7259 N.2         1 GZ2      -0.1598
     13 N1         -1.8220   46.0721   12.5878 N.2         1 GZ2      -0.2093
     14 H1          0.9336   46.4670    9.7259 H           1 GZ2       0.0170
     15 H2         -1.5095   43.3497   10.9082 H           1 GZ2       0.0529
     16 H3          0.0068   42.8139   10.1916 H           1 GZ2       0.0529
     17 H4         -2.3429   44.1931    8.8103 H           1 GZ2       0.0320
     18 H5         -1.6983   42.5735    8.4869 H           1 GZ2       0.0320
     19 H6          0.3077   43.4666    7.4551 H           1 GZ2       0.0470
     20 H7         -1.0571   44.3964    6.7904 H           1 GZ2       0.0470
     21 H8          1.2115   45.1107   11.9542 H           1 GZ2       0.2327
     22 H9          0.6283   45.7228   14.3792 H           1 GZ2       0.2694
@<TRIPOS>BOND
     1     1     2   2
     2     2     3   1
     3     2     7   1
     4     3     4   2
     5     4     5   1
     6     4     8   1
     7     5     6   1
     8     6     7   1
     9     8     9   1
    10     9    10   1
    11     9    13   2
    12    10    11   1
    13    11    12   2
    14    12    13   1
    15     3    14   1
    16     5    15   1
    17     5    16   1
    18     6    17   1
    19     6    18   1
    20     7    19   1
    21     7    20   1
    22     8    21   1
    23    10    22   1
@<TRIPOS>SUBSTRUCTURE
     1  GZ2      2

