@<TRIPOS>MOLECULE
3g2z_ligand_039
    22    23
SMALL
GAST_HUCK
****
This file was generated by PARSER (from files_GN.cpp)

@<TRIPOS>ATOM
      1 O13        -2.7628   52.5346    6.9144 O.2         1 GZ2      -0.4178
      2 C11        -1.8416   52.8563    7.6586 C.2         1 GZ2       0.0775
      3 C12        -1.9858   52.6742    9.0028 C.2         1 GZ2      -0.0164
      4 C7         -1.1621   53.2388    9.9127 C.2         1 GZ2       0.0672
      5 C8         -0.0969   54.1514    9.5005 C.3         1 GZ2       0.0190
      6 C9          0.4340   53.8099    8.0839 C.3         1 GZ2      -0.0220
      7 C10        -0.7448   53.6286    7.0870 C.3         1 GZ2       0.0123
      8 N6         -1.4275   53.1985   11.2165 N.pl3       1 GZ2      -0.2078
      9 C5         -1.4100   52.0862   11.9767 C.2         1 GZ2       0.2841
     10 N4         -1.2021   50.8121   11.6452 N.pl3       1 GZ2      -0.1321
     11 N3         -1.1758   50.1409   12.7078 N.2         1 GZ2      -0.0778
     12 N2         -1.3608   50.8812   13.6680 N.2         1 GZ2      -0.1598
     13 N1         -1.5113   52.0832   13.3047 N.2         1 GZ2      -0.2093
     14 H1         -2.7536   52.1283    9.3276 H           1 GZ2       0.0170
     15 H2          0.7364   54.1006   10.2058 H           1 GZ2       0.0529
     16 H3         -0.4921   55.1709    9.5068 H           1 GZ2       0.0529
     17 H4          1.0038   52.8774    8.1381 H           1 GZ2       0.0320
     18 H5          1.1100   54.5972    7.7424 H           1 GZ2       0.0320
     19 H6         -1.1219   54.6133    6.7947 H           1 GZ2       0.0470
     20 H7         -0.3667   53.1272    6.1914 H           1 GZ2       0.0470
     21 H8         -1.4324   54.0486   11.6924 H           1 GZ2       0.2327
     22 H9         -1.0508   50.4691   10.7484 H           1 GZ2       0.2694
@<TRIPOS>BOND
     1     1     2   2
     2     2     3   1
     3     2     7   1
     4     3     4   2
     5     4     5   1
     6     4     8   1
     7     5     6   1
     8     6     7   1
     9     8     9   1
    10     9    10   1
    11     9    13   2
    12    10    11   1
    13    11    12   2
    14    12    13   1
    15     3    14   1
    16     5    15   1
    17     5    16   1
    18     6    17   1
    19     6    18   1
    20     7    19   1
    21     7    20   1
    22     8    21   1
    23    10    22   1
@<TRIPOS>SUBSTRUCTURE
     1  GZ2      2

