@<TRIPOS>MOLECULE
3g2z_ligand_046
    22    23
SMALL
GAST_HUCK
****
This file was generated by PARSER (from files_GN.cpp)

@<TRIPOS>ATOM
      1 O13        -6.8620   52.6693   15.0069 O.2         1 GZ2      -0.4178
      2 C11        -6.5393   52.8183   13.8363 C.2         1 GZ2       0.0775
      3 C12        -7.4185   53.4129   12.9712 C.2         1 GZ2      -0.0164
      4 C7         -7.0696   53.8750   11.7504 C.2         1 GZ2       0.0672
      5 C8         -5.6901   53.7061   11.2674 C.3         1 GZ2       0.0190
      6 C9         -4.9373   52.5285   11.9456 C.3         1 GZ2      -0.0220
      7 C10        -5.1528   52.5394   13.4783 C.3         1 GZ2       0.0123
      8 N6         -8.0138   54.5039   11.0229 N.pl3       1 GZ2      -0.2078
      9 C5         -7.8783   55.2916    9.9304 C.2         1 GZ2       0.2841
     10 N4         -8.8944   55.8065    9.2305 N.pl3       1 GZ2      -0.1321
     11 N3         -8.4168   56.4677    8.2756 N.2         1 GZ2      -0.0778
     12 N2         -7.1896   56.4295    8.3189 N.2         1 GZ2      -0.1598
     13 N1         -6.7873   55.7380    9.2969 N.2         1 GZ2      -0.2093
     14 H1         -8.3597   53.5375   13.2832 H           1 GZ2       0.0170
     15 H2         -5.1478   54.6338   11.4571 H           1 GZ2       0.0529
     16 H3         -5.6876   53.5118   10.1931 H           1 GZ2       0.0529
     17 H4         -3.8697   52.5887   11.7148 H           1 GZ2       0.0320
     18 H5         -5.3166   51.5847   11.5433 H           1 GZ2       0.0320
     19 H6         -4.8530   51.5642   13.8780 H           1 GZ2       0.0470
     20 H7         -4.5093   53.3010   13.9280 H           1 GZ2       0.0470
     21 H8         -8.9280   54.3829   11.3236 H           1 GZ2       0.2327
     22 H9         -9.8362   55.6830    9.4187 H           1 GZ2       0.2694
@<TRIPOS>BOND
     1     1     2   2
     2     2     3   1
     3     2     7   1
     4     3     4   2
     5     4     5   1
     6     4     8   1
     7     5     6   1
     8     6     7   1
     9     8     9   1
    10     9    10   1
    11     9    13   2
    12    10    11   1
    13    11    12   2
    14    12    13   1
    15     3    14   1
    16     5    15   1
    17     5    16   1
    18     6    17   1
    19     6    18   1
    20     7    19   1
    21     7    20   1
    22     8    21   1
    23    10    22   1
@<TRIPOS>SUBSTRUCTURE
     1  GZ2      2

