@<TRIPOS>MOLECULE
3g2z_ligand_051
    22    23
SMALL
GAST_HUCK
****
This file was generated by PARSER (from files_GN.cpp)

@<TRIPOS>ATOM
      1 O13        -6.7643   55.9677    9.1051 O.2         1 GZ2      -0.4178
      2 C11        -7.9866   55.8708    9.1741 C.2         1 GZ2       0.0775
      3 C12        -8.5474   54.6266    9.1334 C.2         1 GZ2      -0.0164
      4 C7         -9.8269   54.3717    9.4979 C.2         1 GZ2       0.0672
      5 C8        -10.7078   55.4661    9.9335 C.3         1 GZ2       0.0190
      6 C9        -10.2728   56.8561    9.3891 C.3         1 GZ2      -0.0220
      7 C10        -8.7396   57.0584    9.5459 C.3         1 GZ2       0.0123
      8 N6        -10.2286   53.0932    9.4388 N.pl3       1 GZ2      -0.2078
      9 C5        -11.2581   52.5011   10.0897 C.2         1 GZ2       0.2841
     10 N4        -11.6402   51.2379    9.9103 N.pl3       1 GZ2      -0.1321
     11 N3        -12.6258   51.0156   10.6596 N.2         1 GZ2      -0.0778
     12 N2        -12.8838   52.0227   11.3137 N.2         1 GZ2      -0.1598
     13 N1        -12.0880   52.9683   11.0295 N.2         1 GZ2      -0.2093
     14 H1         -7.9699   53.8706    8.8376 H           1 GZ2       0.0170
     15 H2        -10.7182   55.4962   11.0283 H           1 GZ2       0.0529
     16 H3        -11.7324   55.2859    9.5840 H           1 GZ2       0.0529
     17 H4        -10.8157   57.6525    9.9082 H           1 GZ2       0.0320
     18 H5        -10.5263   56.9156    8.3241 H           1 GZ2       0.0320
     19 H6         -8.4476   57.9029    8.9070 H           1 GZ2       0.0470
     20 H7         -8.5151   57.3249   10.5859 H           1 GZ2       0.0470
     21 H8         -9.6999   52.5032    8.8768 H           1 GZ2       0.2327
     22 H9        -11.2455   50.6038    9.2933 H           1 GZ2       0.2694
@<TRIPOS>BOND
     1     1     2   2
     2     2     3   1
     3     2     7   1
     4     3     4   2
     5     4     5   1
     6     4     8   1
     7     5     6   1
     8     6     7   1
     9     8     9   1
    10     9    10   1
    11     9    13   2
    12    10    11   1
    13    11    12   2
    14    12    13   1
    15     3    14   1
    16     5    15   1
    17     5    16   1
    18     6    17   1
    19     6    18   1
    20     7    19   1
    21     7    20   1
    22     8    21   1
    23    10    22   1
@<TRIPOS>SUBSTRUCTURE
     1  GZ2      2

