@<TRIPOS>MOLECULE
3g2z_ligand_013
    22    23
SMALL
GAST_HUCK
****
This file was generated by PARSER (from files_GN.cpp)

@<TRIPOS>ATOM
      1 O13        -1.9102   53.3990   13.1733 O.2         1 GZ2      -0.4178
      2 C11        -1.3557   52.5831   12.4524 C.2         1 GZ2       0.0775
      3 C12        -0.5213   53.0215   11.4612 C.2         1 GZ2      -0.0164
      4 C7          0.3710   52.2305   10.8144 C.2         1 GZ2       0.0672
      5 C8          0.4850   50.8095   11.1751 C.3         1 GZ2       0.0190
      6 C9         -0.8186   50.2348   11.7945 C.3         1 GZ2      -0.0220
      7 C10        -1.4013   51.1894   12.8683 C.3         1 GZ2       0.0123
      8 N6          1.3007   52.6863    9.9546 N.pl3       1 GZ2      -0.2078
      9 C5          1.4045   53.8827    9.3322 C.2         1 GZ2       0.2841
     10 N4          2.4165   54.2624    8.5554 N.pl3       1 GZ2      -0.1321
     11 N3          2.2040   55.4354    8.1705 N.2         1 GZ2      -0.0778
     12 N2          1.1323   55.8291    8.6140 N.2         1 GZ2      -0.1598
     13 N1          0.5787   54.9409    9.3309 N.2         1 GZ2      -0.2093
     14 H1         -0.5293   53.9941   11.2666 H           1 GZ2       0.0170
     15 H2          1.3050   50.7028   11.8895 H           1 GZ2       0.0529
     16 H3          0.7406   50.2100   10.2939 H           1 GZ2       0.0529
     17 H4         -0.6285   49.2506   12.2366 H           1 GZ2       0.0320
     18 H5         -1.5571   50.1053   10.9942 H           1 GZ2       0.0320
     19 H6         -2.4407   50.9084   13.0713 H           1 GZ2       0.0470
     20 H7         -0.8275   51.0936   13.7961 H           1 GZ2       0.0470
     21 H8          2.0160   52.0668    9.7497 H           1 GZ2       0.2327
     22 H9          3.1950   53.7342    8.3295 H           1 GZ2       0.2694
@<TRIPOS>BOND
     1     1     2   2
     2     2     3   1
     3     2     7   1
     4     3     4   2
     5     4     5   1
     6     4     8   1
     7     5     6   1
     8     6     7   1
     9     8     9   1
    10     9    10   1
    11     9    13   2
    12    10    11   1
    13    11    12   2
    14    12    13   1
    15     3    14   1
    16     5    15   1
    17     5    16   1
    18     6    17   1
    19     6    18   1
    20     7    19   1
    21     7    20   1
    22     8    21   1
    23    10    22   1
@<TRIPOS>SUBSTRUCTURE
     1  GZ2      2

