@<TRIPOS>MOLECULE
3g2z_ligand_001
    22    23
SMALL
GAST_HUCK
****
This file was generated by PARSER (from files_GN.cpp)

@<TRIPOS>ATOM
      1 O13       -12.1987   60.9706   10.3247 O.2         1 GZ2      -0.4178
      2 C11       -12.0340   59.8381   10.7734 C.2         1 GZ2       0.0775
      3 C12       -10.7748   59.3328   10.8599 C.2         1 GZ2      -0.0164
      4 C7        -10.4638   58.2346   11.5929 C.2         1 GZ2       0.0672
      5 C8        -11.5024   57.4957   12.3154 C.3         1 GZ2       0.0190
      6 C9        -12.8561   58.2506   12.4726 C.3         1 GZ2      -0.0220
      7 C10       -13.2013   59.0741   11.2033 C.3         1 GZ2       0.0123
      8 N6         -9.1779   57.8607   11.5523 N.pl3       1 GZ2      -0.2078
      9 C5         -8.4789   56.9909   12.3237 C.2         1 GZ2       0.2841
     10 N4         -7.1730   56.7983   12.1904 N.pl3       1 GZ2      -0.1321
     11 N3         -6.8146   55.9544   13.0499 N.2         1 GZ2      -0.0778
     12 N2         -7.7800   55.6059   13.7099 N.2         1 GZ2      -0.1598
     13 N1         -8.8359   56.1886   13.3262 N.2         1 GZ2      -0.2093
     14 H1        -10.0482   59.8191   10.3839 H           1 GZ2       0.0170
     15 H2        -11.1608   57.2663   13.3280 H           1 GZ2       0.0529
     16 H3        -11.6677   56.5431   11.7969 H           1 GZ2       0.0529
     17 H4        -12.7900   58.9315   13.3260 H           1 GZ2       0.0320
     18 H5        -13.6591   57.5360   12.6765 H           1 GZ2       0.0320
     19 H6        -13.4963   58.4007   10.3956 H           1 GZ2       0.0470
     20 H7        -14.0375   59.7386   11.4205 H           1 GZ2       0.0470
     21 H8         -8.6297   58.3267   10.8906 H           1 GZ2       0.2327
     22 H9         -6.5848   57.2422   11.5607 H           1 GZ2       0.2694
@<TRIPOS>BOND
     1     1     2   2
     2     2     3   1
     3     2     7   1
     4     3     4   2
     5     4     5   1
     6     4     8   1
     7     5     6   1
     8     6     7   1
     9     8     9   1
    10     9    10   1
    11     9    13   2
    12    10    11   1
    13    11    12   2
    14    12    13   1
    15     3    14   1
    16     5    15   1
    17     5    16   1
    18     6    17   1
    19     6    18   1
    20     7    19   1
    21     7    20   1
    22     8    21   1
    23    10    22   1
@<TRIPOS>SUBSTRUCTURE
     1  GZ2      2

