@<TRIPOS>MOLECULE
3g2z_ligand_022
    22    23
SMALL
GAST_HUCK
****
This file was generated by PARSER (from files_GN.cpp)

@<TRIPOS>ATOM
      1 O13         0.1225   54.4241   10.1927 O.2         1 GZ2      -0.4178
      2 C11        -0.2775   53.4550   10.8258 C.2         1 GZ2       0.0775
      3 C12         0.4004   52.2816   10.7133 C.2         1 GZ2      -0.0164
      4 C7         -0.1095   51.0947   11.1014 C.2         1 GZ2       0.0672
      5 C8         -1.4093   50.9961   11.7800 C.3         1 GZ2       0.0190
      6 C9         -1.8607   52.3468   12.3973 C.3         1 GZ2      -0.0220
      7 C10        -1.6109   53.5199   11.4119 C.3         1 GZ2       0.0123
      8 N6          0.6514   50.0225   10.8880 N.pl3       1 GZ2      -0.2078
      9 C5          0.2441   48.8384   10.3778 C.2         1 GZ2       0.2841
     10 N4          1.0388   47.7986   10.1559 N.pl3       1 GZ2      -0.1321
     11 N3          0.3511   46.8955    9.6246 N.2         1 GZ2      -0.0778
     12 N2         -0.8091   47.2815    9.5035 N.2         1 GZ2      -0.1598
     13 N1         -0.9549   48.4523    9.9446 N.2         1 GZ2      -0.2093
     14 H1          1.3002   52.2992   10.2830 H           1 GZ2       0.0170
     15 H2         -1.3413   50.2545   12.5828 H           1 GZ2       0.0529
     16 H3         -2.1719   50.6518   11.0738 H           1 GZ2       0.0529
     17 H4         -1.2765   52.5285   13.3041 H           1 GZ2       0.0320
     18 H5         -2.9160   52.3104   12.6764 H           1 GZ2       0.0320
     19 H6         -2.3484   53.4872   10.6049 H           1 GZ2       0.0470
     20 H7         -1.7341   54.4672   11.9477 H           1 GZ2       0.0470
     21 H8          1.6109   50.1351   10.9852 H           1 GZ2       0.2327
     22 H9          1.9899   47.7614   10.3561 H           1 GZ2       0.2694
@<TRIPOS>BOND
     1     1     2   2
     2     2     3   1
     3     2     7   1
     4     3     4   2
     5     4     5   1
     6     4     8   1
     7     5     6   1
     8     6     7   1
     9     8     9   1
    10     9    10   1
    11     9    13   2
    12    10    11   1
    13    11    12   2
    14    12    13   1
    15     3    14   1
    16     5    15   1
    17     5    16   1
    18     6    17   1
    19     6    18   1
    20     7    19   1
    21     7    20   1
    22     8    21   1
    23    10    22   1
@<TRIPOS>SUBSTRUCTURE
     1  GZ2      2

