@<TRIPOS>MOLECULE
3g2z_ligand_062
    22    23
SMALL
GAST_HUCK
****
This file was generated by PARSER (from files_GN.cpp)

@<TRIPOS>ATOM
      1 O13        -2.3174   49.5764   11.1992 O.2         1 GZ2      -0.4178
      2 C11        -2.2450   50.7986   11.1936 C.2         1 GZ2       0.0775
      3 C12        -3.3974   51.5304   11.2118 C.2         1 GZ2      -0.0164
      4 C7         -3.4363   52.8470   11.5053 C.2         1 GZ2       0.0672
      5 C8         -2.1970   53.5965   11.7455 C.3         1 GZ2       0.0190
      6 C9         -0.9437   52.9298   11.1146 C.3         1 GZ2      -0.0220
      7 C10        -0.9327   51.4037   11.3875 C.3         1 GZ2       0.0123
      8 N6         -4.6461   53.4279   11.5293 N.pl3       1 GZ2      -0.2078
      9 C5         -5.0660   54.4802   12.2679 C.2         1 GZ2       0.2841
     10 N4         -4.4576   55.2168   13.1986 N.pl3       1 GZ2      -0.1321
     11 N3         -5.2865   56.0499   13.6390 N.2         1 GZ2      -0.0778
     12 N2         -6.3619   55.9140   13.0629 N.2         1 GZ2      -0.1598
     13 N1         -6.3079   54.9708   12.2230 N.2         1 GZ2      -0.2093
     14 H1         -4.2560   51.0491   11.0594 H           1 GZ2       0.0170
     15 H2         -2.0488   53.6961   12.8231 H           1 GZ2       0.0529
     16 H3         -2.2870   54.5965   11.3181 H           1 GZ2       0.0529
     17 H4         -0.0348   53.3887   11.5123 H           1 GZ2       0.0320
     18 H5         -0.9589   53.0952   10.0324 H           1 GZ2       0.0320
     19 H6         -0.2083   50.9318   10.7177 H           1 GZ2       0.0470
     20 H7         -0.6148   51.2184   12.4177 H           1 GZ2       0.0470
     21 H8         -5.3364   52.9952   11.0022 H           1 GZ2       0.2327
     22 H9         -3.5491   55.1104   13.5191 H           1 GZ2       0.2694
@<TRIPOS>BOND
     1     1     2   2
     2     2     3   1
     3     2     7   1
     4     3     4   2
     5     4     5   1
     6     4     8   1
     7     5     6   1
     8     6     7   1
     9     8     9   1
    10     9    10   1
    11     9    13   2
    12    10    11   1
    13    11    12   2
    14    12    13   1
    15     3    14   1
    16     5    15   1
    17     5    16   1
    18     6    17   1
    19     6    18   1
    20     7    19   1
    21     7    20   1
    22     8    21   1
    23    10    22   1
@<TRIPOS>SUBSTRUCTURE
     1  GZ2      2

