@<TRIPOS>MOLECULE
3g2z_ligand_020
    22    23
SMALL
GAST_HUCK
****
This file was generated by PARSER (from files_GN.cpp)

@<TRIPOS>ATOM
      1 O13       -13.5233   55.1941   10.9612 O.2         1 GZ2      -0.4178
      2 C11       -12.8268   56.1279   11.3405 C.2         1 GZ2       0.0775
      3 C12       -11.4988   56.1334   11.0276 C.2         1 GZ2      -0.0164
      4 C7        -10.5970   56.9730   11.5902 C.2         1 GZ2       0.0672
      5 C8        -11.0278   57.9032   12.6391 C.3         1 GZ2       0.0190
      6 C9        -12.5143   58.3255   12.4958 C.3         1 GZ2      -0.0220
      7 C10       -13.4218   57.0887   12.2599 C.3         1 GZ2       0.0123
      8 N6         -9.2791   56.9794   11.3333 N.pl3       1 GZ2      -0.2078
      9 C5         -8.5542   56.3649   10.3691 C.2         1 GZ2       0.2841
     10 N4         -7.2343   56.4821   10.2572 N.pl3       1 GZ2      -0.1321
     11 N3         -6.8603   55.8013    9.2718 N.2         1 GZ2      -0.0778
     12 N2         -7.8303   55.2656    8.7437 N.2         1 GZ2      -0.1598
     13 N1         -8.8968   55.5643    9.3544 N.2         1 GZ2      -0.2093
     14 H1        -11.1923   55.4627   10.3672 H           1 GZ2       0.0170
     15 H2        -10.4188   58.8124   12.6246 H           1 GZ2       0.0529
     16 H3        -10.8800   57.4190   13.6085 H           1 GZ2       0.0529
     17 H4        -12.6076   59.0030   11.6414 H           1 GZ2       0.0320
     18 H5        -12.8418   58.8655   13.3890 H           1 GZ2       0.0320
     19 H6        -13.6085   56.5873   13.2139 H           1 GZ2       0.0470
     20 H7        -14.3808   57.4325   11.8634 H           1 GZ2       0.0470
     21 H8         -8.7505   57.5344   11.9313 H           1 GZ2       0.2327
     22 H9         -6.6508   57.0001   10.8328 H           1 GZ2       0.2694
@<TRIPOS>BOND
     1     1     2   2
     2     2     3   1
     3     2     7   1
     4     3     4   2
     5     4     5   1
     6     4     8   1
     7     5     6   1
     8     6     7   1
     9     8     9   1
    10     9    10   1
    11     9    13   2
    12    10    11   1
    13    11    12   2
    14    12    13   1
    15     3    14   1
    16     5    15   1
    17     5    16   1
    18     6    17   1
    19     6    18   1
    20     7    19   1
    21     7    20   1
    22     8    21   1
    23    10    22   1
@<TRIPOS>SUBSTRUCTURE
     1  GZ2      2

