@<TRIPOS>MOLECULE
3g2z_ligand_054
    22    23
SMALL
GAST_HUCK
****
This file was generated by PARSER (from files_GN.cpp)

@<TRIPOS>ATOM
      1 O13        -6.0642   40.8291   15.0664 O.2         1 GZ2      -0.4178
      2 C11        -5.3459   41.2213   15.9739 C.2         1 GZ2       0.0775
      3 C12        -4.7201   42.4267   15.8514 C.2         1 GZ2      -0.0164
      4 C7         -4.0737   43.0355   16.8697 C.2         1 GZ2       0.0672
      5 C8         -4.1082   42.4637   18.2169 C.3         1 GZ2       0.0190
      6 C9         -4.2094   40.9152   18.1867 C.3         1 GZ2      -0.0220
      7 C10        -5.3292   40.4541   17.2146 C.3         1 GZ2       0.0123
      8 N6         -3.5519   44.2685   16.7580 N.pl3       1 GZ2      -0.2078
      9 C5         -2.7790   44.7401   15.7545 C.2         1 GZ2       0.2841
     10 N4         -2.2973   45.9792   15.6665 N.pl3       1 GZ2      -0.1321
     11 N3         -1.5948   46.0601   14.6300 N.2         1 GZ2      -0.0778
     12 N2         -1.5818   44.9676   14.0591 N.2         1 GZ2      -0.1598
     13 N1         -2.2766   44.1165   14.6809 N.2         1 GZ2      -0.2093
     14 H1         -4.8006   42.9035   14.9821 H           1 GZ2       0.0170
     15 H2         -4.9741   42.8726   18.7410 H           1 GZ2       0.0529
     16 H3         -3.2106   42.7425   18.7805 H           1 GZ2       0.0529
     17 H4         -4.4102   40.5314   19.1890 H           1 GZ2       0.0320
     18 H5         -3.2545   40.5020   17.8504 H           1 GZ2       0.0320
     19 H6         -5.1800   39.3958   16.9828 H           1 GZ2       0.0470
     20 H7         -6.3031   40.5606   17.7009 H           1 GZ2       0.0470
     21 H8         -3.6529   44.8502   17.5274 H           1 GZ2       0.2327
     22 H9         -2.4988   46.7062   16.2765 H           1 GZ2       0.2694
@<TRIPOS>BOND
     1     1     2   2
     2     2     3   1
     3     2     7   1
     4     3     4   2
     5     4     5   1
     6     4     8   1
     7     5     6   1
     8     6     7   1
     9     8     9   1
    10     9    10   1
    11     9    13   2
    12    10    11   1
    13    11    12   2
    14    12    13   1
    15     3    14   1
    16     5    15   1
    17     5    16   1
    18     6    17   1
    19     6    18   1
    20     7    19   1
    21     7    20   1
    22     8    21   1
    23    10    22   1
@<TRIPOS>SUBSTRUCTURE
     1  GZ2      2

