@<TRIPOS>MOLECULE
3g2z_ligand_043
    22    23
SMALL
GAST_HUCK
****
This file was generated by PARSER (from files_GN.cpp)

@<TRIPOS>ATOM
      1 O13         2.2020   45.3318    9.1289 O.2         1 GZ2      -0.4178
      2 C11         1.1547   45.9261    9.3577 C.2         1 GZ2       0.0775
      3 C12         1.2053   47.0815   10.0869 C.2         1 GZ2      -0.0164
      4 C7          0.1503   47.9094   10.2462 C.2         1 GZ2       0.0672
      5 C8         -1.0970   47.6643    9.5124 C.3         1 GZ2       0.0190
      6 C9         -1.3343   46.1553    9.2351 C.3         1 GZ2      -0.0220
      7 C10        -0.0517   45.4790    8.6822 C.3         1 GZ2       0.0123
      8 N6          0.3854   49.0512   10.9128 N.pl3       1 GZ2      -0.2078
      9 C5         -0.4691   49.7629   11.6856 C.2         1 GZ2       0.2841
     10 N4         -0.1258   50.8668   12.3504 N.pl3       1 GZ2      -0.1321
     11 N3         -1.1212   51.2580   13.0070 N.2         1 GZ2      -0.0778
     12 N2         -2.0591   50.4845   12.8188 N.2         1 GZ2      -0.1598
     13 N1         -1.7442   49.5484   12.0256 N.2         1 GZ2      -0.2093
     14 H1          2.0635   47.3039   10.5442 H           1 GZ2       0.0170
     15 H2         -1.0433   48.1999    8.5610 H           1 GZ2       0.0529
     16 H3         -1.9650   48.0438   10.0518 H           1 GZ2       0.0529
     17 H4         -2.1550   46.0260    8.5258 H           1 GZ2       0.0320
     18 H5         -1.6214   45.6639   10.1718 H           1 GZ2       0.0320
     19 H6         -0.1558   44.3967    8.7980 H           1 GZ2       0.0470
     20 H7          0.0509   45.6971    7.6153 H           1 GZ2       0.0470
     21 H8          1.3145   49.3432   10.9368 H           1 GZ2       0.2327
     22 H9          0.7469   51.2917   12.3370 H           1 GZ2       0.2694
@<TRIPOS>BOND
     1     1     2   2
     2     2     3   1
     3     2     7   1
     4     3     4   2
     5     4     5   1
     6     4     8   1
     7     5     6   1
     8     6     7   1
     9     8     9   1
    10     9    10   1
    11     9    13   2
    12    10    11   1
    13    11    12   2
    14    12    13   1
    15     3    14   1
    16     5    15   1
    17     5    16   1
    18     6    17   1
    19     6    18   1
    20     7    19   1
    21     7    20   1
    22     8    21   1
    23    10    22   1
@<TRIPOS>SUBSTRUCTURE
     1  GZ2      2

