@<TRIPOS>MOLECULE
3g2z_ligand_060
    22    23
SMALL
GAST_HUCK
****
This file was generated by PARSER (from files_GN.cpp)

@<TRIPOS>ATOM
      1 O13        -2.6456   45.6691   15.1035 O.2         1 GZ2      -0.4178
      2 C11        -1.7582   45.1342   14.4507 C.2         1 GZ2       0.0775
      3 C12        -0.9804   45.9030   13.6329 C.2         1 GZ2      -0.0164
      4 C7          0.1205   45.4458   12.9930 C.2         1 GZ2       0.0672
      5 C8          0.6215   44.0897   13.2588 C.3         1 GZ2       0.0190
      6 C9         -0.5096   43.1109   13.6816 C.3         1 GZ2      -0.0220
      7 C10        -1.4355   43.7474   14.7547 C.3         1 GZ2       0.0123
      8 N6          0.8495   46.2025   12.1557 N.pl3       1 GZ2      -0.2078
      9 C5          0.4223   47.2138   11.3589 C.2         1 GZ2       0.2841
     10 N4          1.1610   47.9217   10.5053 N.pl3       1 GZ2      -0.1321
     11 N3          0.4100   48.7415    9.9197 N.2         1 GZ2      -0.0778
     12 N2         -0.7422   48.6126   10.3222 N.2         1 GZ2      -0.1598
     13 N1         -0.8160   47.6959   11.1972 N.2         1 GZ2      -0.2093
     14 H1         -1.2202   46.8629   13.5371 H           1 GZ2       0.0170
     15 H2          1.3757   44.1382   14.0488 H           1 GZ2       0.0529
     16 H3          1.1096   43.6809   12.3689 H           1 GZ2       0.0529
     17 H4         -0.0871   42.1762   14.0612 H           1 GZ2       0.0320
     18 H5         -1.1083   42.8752   12.7972 H           1 GZ2       0.0320
     19 H6         -2.3605   43.1643   14.8117 H           1 GZ2       0.0470
     20 H7         -0.9471   43.7083   15.7335 H           1 GZ2       0.0470
     21 H8          1.7831   45.9567   12.0641 H           1 GZ2       0.2327
     22 H9          2.1071   47.8098   10.3393 H           1 GZ2       0.2694
@<TRIPOS>BOND
     1     1     2   2
     2     2     3   1
     3     2     7   1
     4     3     4   2
     5     4     5   1
     6     4     8   1
     7     5     6   1
     8     6     7   1
     9     8     9   1
    10     9    10   1
    11     9    13   2
    12    10    11   1
    13    11    12   2
    14    12    13   1
    15     3    14   1
    16     5    15   1
    17     5    16   1
    18     6    17   1
    19     6    18   1
    20     7    19   1
    21     7    20   1
    22     8    21   1
    23    10    22   1
@<TRIPOS>SUBSTRUCTURE
     1  GZ2      2

