@<TRIPOS>MOLECULE
3g2z_ligand_030
    22    23
SMALL
GAST_HUCK
****
This file was generated by PARSER (from files_GN.cpp)

@<TRIPOS>ATOM
      1 O13        -0.4369   44.9699   11.9683 O.2         1 GZ2      -0.4178
      2 C11        -0.9029   46.0784   11.7546 C.2         1 GZ2       0.0775
      3 C12        -0.0615   47.1012   11.4286 C.2         1 GZ2      -0.0164
      4 C7         -0.4859   48.2745   10.9057 C.2         1 GZ2       0.0672
      5 C8         -1.9068   48.4260   10.5503 C.3         1 GZ2       0.0190
      6 C9         -2.8184   47.7007   11.5785 C.3         1 GZ2      -0.0220
      7 C10        -2.3545   46.2302   11.7732 C.3         1 GZ2       0.0123
      8 N6          0.4644   49.1953   10.6825 N.pl3       1 GZ2      -0.2078
      9 C5          0.3730   50.5006   10.3574 C.2         1 GZ2       0.2841
     10 N4          1.4531   51.2658   10.2096 N.pl3       1 GZ2      -0.1321
     11 N3          1.0769   52.4327    9.9451 N.2         1 GZ2      -0.0778
     12 N2         -0.1553   52.4631    9.9148 N.2         1 GZ2      -0.1598
     13 N1         -0.6635   51.3197   10.1538 N.2         1 GZ2      -0.2093
     14 H1          0.9045   46.9857   11.6324 H           1 GZ2       0.0170
     15 H2         -2.0626   47.9774    9.5650 H           1 GZ2       0.0529
     16 H3         -2.2220   49.4730   10.4947 H           1 GZ2       0.0529
     17 H4         -3.8611   47.7324   11.2421 H           1 GZ2       0.0320
     18 H5         -2.7547   48.2336   12.5337 H           1 GZ2       0.0320
     19 H6         -2.7475   45.8634   12.7226 H           1 GZ2       0.0470
     20 H7         -2.7766   45.6237   10.9688 H           1 GZ2       0.0470
     21 H8          1.3746   48.8926   10.8289 H           1 GZ2       0.2327
     22 H9          2.3674   50.9596   10.3185 H           1 GZ2       0.2694
@<TRIPOS>BOND
     1     1     2   2
     2     2     3   1
     3     2     7   1
     4     3     4   2
     5     4     5   1
     6     4     8   1
     7     5     6   1
     8     6     7   1
     9     8     9   1
    10     9    10   1
    11     9    13   2
    12    10    11   1
    13    11    12   2
    14    12    13   1
    15     3    14   1
    16     5    15   1
    17     5    16   1
    18     6    17   1
    19     6    18   1
    20     7    19   1
    21     7    20   1
    22     8    21   1
    23    10    22   1
@<TRIPOS>SUBSTRUCTURE
     1  GZ2      2

