@<TRIPOS>MOLECULE
3gbb_ligand_011
    34    35
SMALL
GAST_HUCK
****
This file was generated by PARSER (from files_GN.cpp)

@<TRIPOS>ATOM
      1 O           4.1383   43.1758    5.8141 O.co2       1 MS8      -0.5643
      2 C           2.8875   43.5629    6.1478 C.2         1 MS8       0.0844
      3 OXT         1.9510   42.5972    6.3088 O.co2       1 MS8      -0.5643
      4 CA          2.5367   44.9980    6.2515 C.3         1 MS8       0.0305
      5 N           3.2789   45.5771    7.3974 N.4         1 MS8       0.2327
      6 CB          2.8250   45.7679    4.9225 C.3         1 MS8       0.0363
      7 CAS         1.6256   46.0085    3.9270 C.3         1 MS8       0.1229
      8 CAJ         0.5029   44.9255    3.9459 C.3         1 MS8       0.0101
      9 CAN         1.0459   47.3792    4.0437 C.2         1 MS8       0.0769
     10 OAC         0.1645   47.8161    3.1100 O.co2       1 MS8      -0.5451
     11 OAE         1.3753   48.2526    5.0273 O.co2       1 MS8      -0.5451
     12 OAL         2.2042   45.9307    2.5994 O.3         1 MS8      -0.3631
     13 CAR         1.7697   44.7262    1.9350 C.3         1 MS8       0.0848
     14 CAQ         1.0651   43.8560    3.0038 C.3         1 MS8       0.0868
     15 CAH         0.8362   45.1034    0.7519 C.3         1 MS8      -0.0222
     16 CAP        -0.0238   43.9058    0.2787 C.3         1 MS8      -0.0270
     17 CAG        -0.7958   43.3029    1.4776 C.3         1 MS8       0.0482
     18 OAK         0.1055   42.8852    2.5194 O.3         1 MS8      -0.3740
     19 H1          1.4719   45.0955    6.5008 H           1 MS8       0.1024
     20 H2          2.7532   46.3783    7.7571 H           1 MS8       0.2010
     21 H3          4.2145   45.8711    7.0966 H           1 MS8       0.2010
     22 H4          3.3671   44.8809    8.1419 H           1 MS8       0.2010
     23 H5          3.6299   45.2547    4.3874 H           1 MS8       0.0359
     24 H6          3.2472   46.7448    5.1821 H           1 MS8       0.0359
     25 H7         -0.4331   45.3156    3.5367 H           1 MS8       0.0311
     26 H8          0.2918   44.5122    4.9418 H           1 MS8       0.0311
     27 H9          2.6395   44.1820    1.5527 H           1 MS8       0.0620
     28 H10         1.8223   43.2830    3.5509 H           1 MS8       0.0622
     29 H11         1.4445   45.4670   -0.0808 H           1 MS8       0.0292
     30 H12         0.1734   45.9154    1.0516 H           1 MS8       0.0292
     31 H13         0.6247   43.1356   -0.1447 H           1 MS8       0.0288
     32 H14        -0.7231   44.2316   -0.4870 H           1 MS8       0.0288
     33 H15        -1.3409   42.4200    1.1426 H           1 MS8       0.0560
     34 H16        -1.5215   44.0196    1.8582 H           1 MS8       0.0560
@<TRIPOS>BOND
     1     1     2  ar
     2     2     3  ar
     3     2     4   1
     4     4     5   1
     5     4     6   1
     6     6     7   1
     7     7     8   1
     8     7     9   1
     9     7    12   1
    10     8    14   1
    11     9    10  ar
    12     9    11  ar
    13    12    13   1
    14    13    14   1
    15    13    15   1
    16    14    18   1
    17    15    16   1
    18    16    17   1
    19    17    18   1
    20     4    19   1
    21     5    20   1
    22     5    21   1
    23     5    22   1
    24     6    23   1
    25     6    24   1
    26     8    25   1
    27     8    26   1
    28    13    27   1
    29    14    28   1
    30    15    29   1
    31    15    30   1
    32    16    31   1
    33    16    32   1
    34    17    33   1
    35    17    34   1
@<TRIPOS>SUBSTRUCTURE
     1  MS8      2

