@<TRIPOS>MOLECULE
3gbb_ligand_052
    34    35
SMALL
GAST_HUCK
****
This file was generated by PARSER (from files_GN.cpp)

@<TRIPOS>ATOM
      1 O           1.9920   41.6992    4.7006 O.co2       1 MS8      -0.5643
      2 C           2.4068   41.7241    3.4168 C.2         1 MS8       0.0844
      3 OXT         3.6779   41.3363    3.1364 O.co2       1 MS8      -0.5643
      4 CA          1.4436   41.8584    2.3026 C.3         1 MS8       0.0305
      5 N           0.7605   40.5580    2.0894 N.4         1 MS8       0.2327
      6 CB          0.3873   42.9848    2.5248 C.3         1 MS8       0.0363
      7 CAS         0.7322   44.4483    2.0674 C.3         1 MS8       0.1229
      8 CAJ         1.6969   44.5189    0.8437 C.3         1 MS8       0.0101
      9 CAN        -0.5449   45.1805    1.8011 C.2         1 MS8       0.0769
     10 OAC        -1.3217   45.5736    2.8438 O.co2       1 MS8      -0.5451
     11 OAE        -1.1141   45.1350    0.5740 O.co2       1 MS8      -0.5451
     12 OAL         1.4037   45.1546    3.1532 O.3         1 MS8      -0.3631
     13 CAR         2.4522   45.9705    2.6039 C.3         1 MS8       0.0848
     14 CAQ         2.9909   45.1134    1.4385 C.3         1 MS8       0.0868
     15 CAH         1.9871   47.3912    2.1456 C.3         1 MS8      -0.0222
     16 CAP         2.9975   48.0551    1.1796 C.3         1 MS8      -0.0270
     17 CAG         3.4056   47.0983    0.0230 C.3         1 MS8       0.0482
     18 OAK         3.8548   45.8196    0.5133 O.3         1 MS8      -0.3740
     19 H1          2.0000   42.0699    1.3788 H           1 MS8       0.1024
     20 H2          0.2890   40.5663    1.1656 H           1 MS8       0.2010
     21 H3          0.0495   40.4113    2.8232 H           1 MS8       0.2010
     22 H4          1.4512   39.7917    2.1132 H           1 MS8       0.2010
     23 H5          0.1424   43.0223    3.5933 H           1 MS8       0.0359
     24 H6         -0.5291   42.6883    1.9960 H           1 MS8       0.0359
     25 H7          1.3072   45.1673    0.0677 H           1 MS8       0.0311
     26 H8          1.8444   43.5256    0.4091 H           1 MS8       0.0311
     27 H9          3.2371   46.0918    3.3680 H           1 MS8       0.0620
     28 H10         3.5841   44.3041    1.8738 H           1 MS8       0.0622
     29 H11         1.8513   48.0229    3.0222 H           1 MS8       0.0292
     30 H12         1.0155   47.3233    1.6382 H           1 MS8       0.0292
     31 H13         3.8961   48.3252    1.7255 H           1 MS8       0.0288
     32 H14         2.5695   48.9691    0.7579 H           1 MS8       0.0288
     33 H15         4.2461   47.5402   -0.5174 H           1 MS8       0.0560
     34 H16         2.5789   46.9856   -0.6919 H           1 MS8       0.0560
@<TRIPOS>BOND
     1     1     2  ar
     2     2     3  ar
     3     2     4   1
     4     4     5   1
     5     4     6   1
     6     6     7   1
     7     7     8   1
     8     7     9   1
     9     7    12   1
    10     8    14   1
    11     9    10  ar
    12     9    11  ar
    13    12    13   1
    14    13    14   1
    15    13    15   1
    16    14    18   1
    17    15    16   1
    18    16    17   1
    19    17    18   1
    20     4    19   1
    21     5    20   1
    22     5    21   1
    23     5    22   1
    24     6    23   1
    25     6    24   1
    26     8    25   1
    27     8    26   1
    28    13    27   1
    29    14    28   1
    30    15    29   1
    31    15    30   1
    32    16    31   1
    33    16    32   1
    34    17    33   1
    35    17    34   1
@<TRIPOS>SUBSTRUCTURE
     1  MS8      2

