@<TRIPOS>MOLECULE
3gbb_ligand_067
    34    35
SMALL
GAST_HUCK
****
This file was generated by PARSER (from files_GN.cpp)

@<TRIPOS>ATOM
      1 O           1.2029   43.4643    0.6760 O.co2       1 MS8      -0.5643
      2 C           1.8484   42.7300    1.6121 C.2         1 MS8       0.0844
      3 OXT         3.1025   43.1141    1.9985 O.co2       1 MS8      -0.5643
      4 CA          1.1168   41.6835    2.3503 C.3         1 MS8       0.0305
      5 N           0.4348   40.8579    1.3405 N.4         1 MS8       0.2327
      6 CB          1.9981   40.7510    3.2466 C.3         1 MS8       0.0363
      7 CAS         2.7093   41.3610    4.5104 C.3         1 MS8       0.1229
      8 CAJ         1.7240   41.8216    5.6281 C.3         1 MS8       0.0101
      9 CAN         3.7303   40.4196    5.0589 C.2         1 MS8       0.0769
     10 OAC         4.0629   39.2490    4.4617 O.co2       1 MS8      -0.5451
     11 OAE         4.3657   40.6961    6.2206 O.co2       1 MS8      -0.5451
     12 OAL         3.4615   42.5341    4.0954 O.3         1 MS8      -0.3631
     13 CAR         2.8253   43.6817    4.6658 C.3         1 MS8       0.0848
     14 CAQ         2.2184   43.2276    6.0038 C.3         1 MS8       0.0868
     15 CAH         3.8505   44.8303    4.8113 C.3         1 MS8      -0.0222
     16 CAP         4.8172   44.5864    5.9962 C.3         1 MS8      -0.0270
     17 CAG         4.0120   44.2937    7.2764 C.3         1 MS8       0.0482
     18 OAK         3.1920   43.1271    7.0679 O.3         1 MS8      -0.3740
     19 H1          0.3488   42.1651    2.9570 H           1 MS8       0.1024
     20 H2         -0.0455   40.0751    1.7915 H           1 MS8       0.2010
     21 H3          1.1267   40.4952    0.6842 H           1 MS8       0.2010
     22 H4         -0.2475   41.4221    0.8333 H           1 MS8       0.2010
     23 H5          2.7506   40.3206    2.5849 H           1 MS8       0.0359
     24 H6          1.3760   39.9139    3.5908 H           1 MS8       0.0359
     25 H7          1.7038   41.1561    6.4965 H           1 MS8       0.0311
     26 H8          0.6998   41.8938    5.2570 H           1 MS8       0.0311
     27 H9          2.0308   44.0132    3.9903 H           1 MS8       0.0620
     28 H10         1.4008   43.8848    6.3044 H           1 MS8       0.0622
     29 H11         3.3026   45.7651    4.9799 H           1 MS8       0.0292
     30 H12         4.4154   44.9262    3.8825 H           1 MS8       0.0292
     31 H13         5.4548   45.4575    6.1514 H           1 MS8       0.0288
     32 H14         5.4569   43.7258    5.7741 H           1 MS8       0.0288
     33 H15         3.3981   45.1530    7.5557 H           1 MS8       0.0560
     34 H16         4.7049   44.0941    8.0944 H           1 MS8       0.0560
@<TRIPOS>BOND
     1     1     2  ar
     2     2     3  ar
     3     2     4   1
     4     4     5   1
     5     4     6   1
     6     6     7   1
     7     7     8   1
     8     7     9   1
     9     7    12   1
    10     8    14   1
    11     9    10  ar
    12     9    11  ar
    13    12    13   1
    14    13    14   1
    15    13    15   1
    16    14    18   1
    17    15    16   1
    18    16    17   1
    19    17    18   1
    20     4    19   1
    21     5    20   1
    22     5    21   1
    23     5    22   1
    24     6    23   1
    25     6    24   1
    26     8    25   1
    27     8    26   1
    28    13    27   1
    29    14    28   1
    30    15    29   1
    31    15    30   1
    32    16    31   1
    33    16    32   1
    34    17    33   1
    35    17    34   1
@<TRIPOS>SUBSTRUCTURE
     1  MS8      2

