@<TRIPOS>MOLECULE
3gbb_ligand_044
    34    35
SMALL
GAST_HUCK
****
This file was generated by PARSER (from files_GN.cpp)

@<TRIPOS>ATOM
      1 O           5.8175   43.3314    7.7496 O.co2       1 MS8      -0.5643
      2 C           4.9166   43.3425    6.7304 C.2         1 MS8       0.0844
      3 OXT         4.5574   44.5502    6.2176 O.co2       1 MS8      -0.5643
      4 CA          4.3817   42.0993    6.1064 C.3         1 MS8       0.0305
      5 N           4.9474   40.9159    6.7713 N.4         1 MS8       0.2327
      6 CB          2.8117   42.0898    6.0937 C.3         1 MS8       0.0363
      7 CAS         2.0292   41.6904    4.7774 C.3         1 MS8       0.1229
      8 CAJ         2.6527   42.0834    3.4064 C.3         1 MS8       0.0101
      9 CAN         1.6376   40.2533    4.8255 C.2         1 MS8       0.0769
     10 OAC         0.8474   39.7983    5.8301 O.co2       1 MS8      -0.5451
     11 OAE         2.0490   39.3554    3.9072 O.co2       1 MS8      -0.5451
     12 OAL         0.8079   42.4757    4.7242 O.3         1 MS8      -0.3631
     13 CAR         1.0983   43.7607    4.1302 C.3         1 MS8       0.0848
     14 CAQ         2.4215   43.5985    3.3369 C.3         1 MS8       0.0868
     15 CAH        -0.0436   44.2719    3.2204 C.3         1 MS8      -0.0222
     16 CAP         0.4179   45.5531    2.4716 C.3         1 MS8      -0.0270
     17 CAG         1.8448   45.4111    1.8617 C.3         1 MS8       0.0482
     18 OAK         2.3595   44.0697    1.9685 O.3         1 MS8      -0.3740
     19 H1          4.7717   42.0939    5.0931 H           1 MS8       0.1024
     20 H2          4.6284   40.0677    6.3097 H           1 MS8       0.2010
     21 H3          4.6755   40.8997    7.7548 H           1 MS8       0.2010
     22 H4          5.9671   40.9619    6.7169 H           1 MS8       0.2010
     23 H5          2.4682   43.0885    6.3793 H           1 MS8       0.0359
     24 H6          2.4743   41.4491    6.9180 H           1 MS8       0.0359
     25 H7          2.1069   41.6023    2.5906 H           1 MS8       0.0311
     26 H8          3.7089   41.8376    3.2935 H           1 MS8       0.0311
     27 H9          1.2472   44.4920    4.9274 H           1 MS8       0.0620
     28 H10         3.2427   44.1127    3.8559 H           1 MS8       0.0622
     29 H11        -0.9302   44.4811    3.8204 H           1 MS8       0.0292
     30 H12        -0.3030   43.4949    2.4931 H           1 MS8       0.0292
     31 H13         0.4102   46.3837    3.1797 H           1 MS8       0.0288
     32 H14        -0.3095   45.7910    1.6939 H           1 MS8       0.0288
     33 H15         2.5292   46.1041    2.3544 H           1 MS8       0.0560
     34 H16         1.8173   45.6714    0.8040 H           1 MS8       0.0560
@<TRIPOS>BOND
     1     1     2  ar
     2     2     3  ar
     3     2     4   1
     4     4     5   1
     5     4     6   1
     6     6     7   1
     7     7     8   1
     8     7     9   1
     9     7    12   1
    10     8    14   1
    11     9    10  ar
    12     9    11  ar
    13    12    13   1
    14    13    14   1
    15    13    15   1
    16    14    18   1
    17    15    16   1
    18    16    17   1
    19    17    18   1
    20     4    19   1
    21     5    20   1
    22     5    21   1
    23     5    22   1
    24     6    23   1
    25     6    24   1
    26     8    25   1
    27     8    26   1
    28    13    27   1
    29    14    28   1
    30    15    29   1
    31    15    30   1
    32    16    31   1
    33    16    32   1
    34    17    33   1
    35    17    34   1
@<TRIPOS>SUBSTRUCTURE
     1  MS8      2

