@<TRIPOS>MOLECULE
3gbb_ligand_056
    34    35
SMALL
GAST_HUCK
****
This file was generated by PARSER (from files_GN.cpp)

@<TRIPOS>ATOM
      1 O           2.6605   43.5674    1.4286 O.co2       1 MS8      -0.5643
      2 C           1.4394   43.0379    1.2370 C.2         1 MS8       0.0844
      3 OXT         0.6508   43.6117    0.2874 O.co2       1 MS8      -0.5643
      4 CA          0.8621   42.0662    2.1855 C.3         1 MS8       0.0305
      5 N           1.1541   40.7146    1.6902 N.4         1 MS8       0.2327
      6 CB          1.2757   42.2028    3.6943 C.3         1 MS8       0.0363
      7 CAS         1.9022   43.5397    4.2446 C.3         1 MS8       0.1229
      8 CAJ         3.4735   43.4642    4.3197 C.3         1 MS8       0.0101
      9 CAN         1.3753   44.7418    3.5583 C.2         1 MS8       0.0769
     10 OAC         2.1414   45.5805    2.8491 O.co2       1 MS8      -0.5451
     11 OAE         0.0344   45.0355    3.6211 O.co2       1 MS8      -0.5451
     12 OAL         1.4574   43.6648    5.6213 O.3         1 MS8      -0.3631
     13 CAR         2.5767   43.7997    6.4959 C.3         1 MS8       0.0848
     14 CAQ         3.7330   43.0760    5.7896 C.3         1 MS8       0.0868
     15 CAH         2.8959   45.2920    6.8012 C.3         1 MS8      -0.0222
     16 CAP         4.2673   45.4172    7.4949 C.3         1 MS8      -0.0270
     17 CAG         5.3689   44.7146    6.6587 C.3         1 MS8       0.0482
     18 OAK         5.0378   43.3474    6.3456 O.3         1 MS8      -0.3740
     19 H1         -0.2315   42.1733    2.1217 H           1 MS8       0.1024
     20 H2          0.7094   40.0162    2.2903 H           1 MS8       0.2010
     21 H3          2.1673   40.5490    1.6859 H           1 MS8       0.2010
     22 H4          0.7967   40.5997    0.7364 H           1 MS8       0.2010
     23 H5          1.9592   41.3871    3.9385 H           1 MS8       0.0359
     24 H6          0.3642   41.9978    4.2728 H           1 MS8       0.0359
     25 H7          3.9503   44.4202    4.1120 H           1 MS8       0.0311
     26 H8          3.9095   42.7192    3.6560 H           1 MS8       0.0311
     27 H9          2.3495   43.2887    7.4270 H           1 MS8       0.0620
     28 H10         3.5785   41.9997    5.8837 H           1 MS8       0.0622
     29 H11         2.1184   45.7050    7.4453 H           1 MS8       0.0292
     30 H12         2.9067   45.8824    5.8821 H           1 MS8       0.0292
     31 H13         4.2139   44.9484    8.4802 H           1 MS8       0.0288
     32 H14         4.5204   46.4714    7.6234 H           1 MS8       0.0288
     33 H15         6.2947   44.7096    7.2349 H           1 MS8       0.0560
     34 H16         5.5543   45.2684    5.7404 H           1 MS8       0.0560
@<TRIPOS>BOND
     1     1     2  ar
     2     2     3  ar
     3     2     4   1
     4     4     5   1
     5     4     6   1
     6     6     7   1
     7     7     8   1
     8     7     9   1
     9     7    12   1
    10     8    14   1
    11     9    10  ar
    12     9    11  ar
    13    12    13   1
    14    13    14   1
    15    13    15   1
    16    14    18   1
    17    15    16   1
    18    16    17   1
    19    17    18   1
    20     4    19   1
    21     5    20   1
    22     5    21   1
    23     5    22   1
    24     6    23   1
    25     6    24   1
    26     8    25   1
    27     8    26   1
    28    13    27   1
    29    14    28   1
    30    15    29   1
    31    15    30   1
    32    16    31   1
    33    16    32   1
    34    17    33   1
    35    17    34   1
@<TRIPOS>SUBSTRUCTURE
     1  MS8      2

