@<TRIPOS>MOLECULE
3gbb_ligand_036
    34    35
SMALL
GAST_HUCK
****
This file was generated by PARSER (from files_GN.cpp)

@<TRIPOS>ATOM
      1 O           1.8642   46.9506    1.5427 O.co2       1 MS8      -0.5643
      2 C           1.2585   47.7182    2.4791 C.2         1 MS8       0.0844
      3 OXT         0.0878   48.3335    2.1776 O.co2       1 MS8      -0.5643
      4 CA          1.7272   47.6900    3.8697 C.3         1 MS8       0.0305
      5 N           1.2756   48.9314    4.5109 N.4         1 MS8       0.2327
      6 CB          1.2400   46.4753    4.7085 C.3         1 MS8       0.0363
      7 CAS         1.2482   45.0645    4.0200 C.3         1 MS8       0.1229
      8 CAJ         0.8700   43.9441    5.0290 C.3         1 MS8       0.0101
      9 CAN         0.3426   45.0128    2.8431 C.2         1 MS8       0.0769
     10 OAC         0.5175   44.0863    1.8741 O.co2       1 MS8      -0.5451
     11 OAE        -0.7914   45.7584    2.8109 O.co2       1 MS8      -0.5451
     12 OAL         2.5871   44.7457    3.5795 O.3         1 MS8      -0.3631
     13 CAR         3.2194   43.8598    4.5172 C.3         1 MS8       0.0848
     14 CAQ         2.2119   43.5503    5.6613 C.3         1 MS8       0.0868
     15 CAH         3.6615   42.5482    3.8072 C.3         1 MS8      -0.0222
     16 CAP         4.1764   41.4885    4.8237 C.3         1 MS8      -0.0270
     17 CAG         3.4557   41.5592    6.2024 C.3         1 MS8       0.0482
     18 OAK         2.1619   42.1764    6.1067 O.3         1 MS8      -0.3740
     19 H1          2.8227   47.6810    3.8747 H           1 MS8       0.1024
     20 H2          1.5433   48.9256    5.5012 H           1 MS8       0.2010
     21 H3          0.2598   49.0134    4.4457 H           1 MS8       0.2010
     22 H4          1.7064   49.7234    4.0305 H           1 MS8       0.2010
     23 H5          0.2329   46.6803    5.0740 H           1 MS8       0.0359
     24 H6          1.8877   46.4388    5.5942 H           1 MS8       0.0359
     25 H7          0.4503   43.0655    4.5164 H           1 MS8       0.0311
     26 H8          0.1582   44.2764    5.7910 H           1 MS8       0.0311
     27 H9          4.1048   44.3558    4.9260 H           1 MS8       0.0620
     28 H10         2.4264   44.1991    6.5227 H           1 MS8       0.0622
     29 H11         4.4442   42.7730    3.0772 H           1 MS8       0.0292
     30 H12         2.8064   42.1397    3.2655 H           1 MS8       0.0292
     31 H13         5.2436   41.6342    4.9842 H           1 MS8       0.0288
     32 H14         4.0347   40.4972    4.3869 H           1 MS8       0.0288
     33 H15         4.0724   42.1137    6.9168 H           1 MS8       0.0560
     34 H16         3.3167   40.5529    6.5919 H           1 MS8       0.0560
@<TRIPOS>BOND
     1     1     2  ar
     2     2     3  ar
     3     2     4   1
     4     4     5   1
     5     4     6   1
     6     6     7   1
     7     7     8   1
     8     7     9   1
     9     7    12   1
    10     8    14   1
    11     9    10  ar
    12     9    11  ar
    13    12    13   1
    14    13    14   1
    15    13    15   1
    16    14    18   1
    17    15    16   1
    18    16    17   1
    19    17    18   1
    20     4    19   1
    21     5    20   1
    22     5    21   1
    23     5    22   1
    24     6    23   1
    25     6    24   1
    26     8    25   1
    27     8    26   1
    28    13    27   1
    29    14    28   1
    30    15    29   1
    31    15    30   1
    32    16    31   1
    33    16    32   1
    34    17    33   1
    35    17    34   1
@<TRIPOS>SUBSTRUCTURE
     1  MS8      2

