@<TRIPOS>MOLECULE
3gbb_ligand_008
    34    35
SMALL
GAST_HUCK
****
This file was generated by PARSER (from files_GN.cpp)

@<TRIPOS>ATOM
      1 O          -0.0603   46.7033    1.8212 O.co2       1 MS8      -0.5643
      2 C           0.6364   45.8162    1.0502 C.2         1 MS8       0.0844
      3 OXT         0.0762   45.4199   -0.1108 O.co2       1 MS8      -0.5643
      4 CA          2.0456   45.4967    1.3481 C.3         1 MS8       0.0305
      5 N           2.8706   46.5348    0.7116 N.4         1 MS8       0.2327
      6 CB          2.3960   45.4057    2.8678 C.3         1 MS8       0.0363
      7 CAS         1.9331   44.1301    3.6407 C.3         1 MS8       0.1229
      8 CAJ         2.3183   44.2199    5.1497 C.3         1 MS8       0.0101
      9 CAN         0.4736   43.8824    3.4675 C.2         1 MS8       0.0769
     10 OAC        -0.4342   44.7882    3.9513 O.co2       1 MS8      -0.5451
     11 OAE         0.0166   42.9723    2.6036 O.co2       1 MS8      -0.5451
     12 OAL         2.6243   42.9547    3.1433 O.3         1 MS8      -0.3631
     13 CAR         3.2607   42.2617    4.2301 C.3         1 MS8       0.0848
     14 CAQ         2.5943   42.7634    5.5342 C.3         1 MS8       0.0868
     15 CAH         3.1865   40.7185    4.0844 C.3         1 MS8      -0.0222
     16 CAP         1.7841   40.1690    4.4327 C.3         1 MS8      -0.0270
     17 CAG         1.3410   40.6930    5.8199 C.3         1 MS8       0.0482
     18 OAK         1.3347   42.1263    5.8525 O.3         1 MS8      -0.3740
     19 H1          2.2903   44.5409    0.8726 H           1 MS8       0.1024
     20 H2          3.8552   46.2681    0.7600 H           1 MS8       0.2010
     21 H3          2.7345   47.4295    1.1885 H           1 MS8       0.2010
     22 H4          2.6013   46.6346   -0.2736 H           1 MS8       0.2010
     23 H5          2.0151   46.2945    3.3775 H           1 MS8       0.0359
     24 H6          3.4962   45.4446    2.9492 H           1 MS8       0.0359
     25 H7          1.5415   44.6669    5.7710 H           1 MS8       0.0311
     26 H8          3.2382   44.7933    5.2913 H           1 MS8       0.0311
     27 H9          4.3171   42.5515    4.2268 H           1 MS8       0.0620
     28 H10         3.2748   42.6920    6.3900 H           1 MS8       0.0622
     29 H11         3.9225   40.2600    4.7595 H           1 MS8       0.0292
     30 H12         3.4511   40.4288    3.0653 H           1 MS8       0.0292
     31 H13         1.8027   39.0741    4.4336 H           1 MS8       0.0288
     32 H14         1.0662   40.4955    3.6771 H           1 MS8       0.0288
     33 H15         1.9915   40.3118    6.6065 H           1 MS8       0.0560
     34 H16         0.3284   40.3343    6.0246 H           1 MS8       0.0560
@<TRIPOS>BOND
     1     1     2  ar
     2     2     3  ar
     3     2     4   1
     4     4     5   1
     5     4     6   1
     6     6     7   1
     7     7     8   1
     8     7     9   1
     9     7    12   1
    10     8    14   1
    11     9    10  ar
    12     9    11  ar
    13    12    13   1
    14    13    14   1
    15    13    15   1
    16    14    18   1
    17    15    16   1
    18    16    17   1
    19    17    18   1
    20     4    19   1
    21     5    20   1
    22     5    21   1
    23     5    22   1
    24     6    23   1
    25     6    24   1
    26     8    25   1
    27     8    26   1
    28    13    27   1
    29    14    28   1
    30    15    29   1
    31    15    30   1
    32    16    31   1
    33    16    32   1
    34    17    33   1
    35    17    34   1
@<TRIPOS>SUBSTRUCTURE
     1  MS8      2

