@<TRIPOS>MOLECULE
3gbb_ligand_040
    34    35
SMALL
GAST_HUCK
****
This file was generated by PARSER (from files_GN.cpp)

@<TRIPOS>ATOM
      1 O           1.8164   40.1863    5.7465 O.co2       1 MS8      -0.5643
      2 C           3.1109   40.4300    5.3990 C.2         1 MS8       0.0844
      3 OXT         3.6357   39.7368    4.3554 O.co2       1 MS8      -0.5643
      4 CA          3.8293   41.5801    5.9882 C.3         1 MS8       0.0305
      5 N           5.1667   41.1121    6.4096 N.4         1 MS8       0.2327
      6 CB          3.9423   42.7760    4.9853 C.3         1 MS8       0.0363
      7 CAS         2.6124   43.4995    4.5606 C.3         1 MS8       0.1229
      8 CAJ         1.3934   42.5702    4.2531 C.3         1 MS8       0.0101
      9 CAN         2.2823   44.5749    5.5432 C.2         1 MS8       0.0769
     10 OAC         2.9013   45.7750    5.4875 O.co2       1 MS8      -0.5451
     11 OAE         1.6170   44.2885    6.6887 O.co2       1 MS8      -0.5451
     12 OAL         2.8914   44.1957    3.3200 O.3         1 MS8      -0.3631
     13 CAR         2.0924   43.6242    2.2716 C.3         1 MS8       0.0848
     14 CAQ         0.7969   43.1474    2.9604 C.3         1 MS8       0.0868
     15 CAH         1.8178   44.6290    1.1305 C.3         1 MS8      -0.0222
     16 CAP         0.7356   45.6722    1.4923 C.3         1 MS8      -0.0270
     17 CAG        -0.5077   44.9908    2.1185 C.3         1 MS8       0.0482
     18 OAK        -0.1214   44.2246    3.2720 O.3         1 MS8      -0.3740
     19 H1          3.3137   41.9010    6.8871 H           1 MS8       0.1024
     20 H2          5.6400   41.8620    6.9140 H           1 MS8       0.2010
     21 H3          5.7128   40.8437    5.5869 H           1 MS8       0.2010
     22 H4          5.0754   40.2969    7.0306 H           1 MS8       0.2010
     23 H5          4.4511   42.4237    4.0842 H           1 MS8       0.0359
     24 H6          4.6128   43.5139    5.4328 H           1 MS8       0.0359
     25 H7          0.6473   42.5405    5.0433 H           1 MS8       0.0311
     26 H8          1.7210   41.5507    4.0534 H           1 MS8       0.0311
     27 H9          2.6339   42.7586    1.8586 H           1 MS8       0.0620
     28 H10         0.2848   42.3785    2.3748 H           1 MS8       0.0622
     29 H11         1.4839   44.0682    0.2527 H           1 MS8       0.0292
     30 H12         2.7455   45.1423    0.8776 H           1 MS8       0.0292
     31 H13         0.4401   46.2077    0.5895 H           1 MS8       0.0288
     32 H14         1.1449   46.3951    2.2029 H           1 MS8       0.0288
     33 H15        -1.0150   44.3554    1.3876 H           1 MS8       0.0560
     34 H16        -1.2110   45.7540    2.4501 H           1 MS8       0.0560
@<TRIPOS>BOND
     1     1     2  ar
     2     2     3  ar
     3     2     4   1
     4     4     5   1
     5     4     6   1
     6     6     7   1
     7     7     8   1
     8     7     9   1
     9     7    12   1
    10     8    14   1
    11     9    10  ar
    12     9    11  ar
    13    12    13   1
    14    13    14   1
    15    13    15   1
    16    14    18   1
    17    15    16   1
    18    16    17   1
    19    17    18   1
    20     4    19   1
    21     5    20   1
    22     5    21   1
    23     5    22   1
    24     6    23   1
    25     6    24   1
    26     8    25   1
    27     8    26   1
    28    13    27   1
    29    14    28   1
    30    15    29   1
    31    15    30   1
    32    16    31   1
    33    16    32   1
    34    17    33   1
    35    17    34   1
@<TRIPOS>SUBSTRUCTURE
     1  MS8      2

