@<TRIPOS>MOLECULE
3gbb_ligand_012
    34    35
SMALL
GAST_HUCK
****
This file was generated by PARSER (from files_GN.cpp)

@<TRIPOS>ATOM
      1 O           0.4517   45.9095    6.6318 O.co2       1 MS8      -0.5643
      2 C           1.5601   46.5817    6.2547 C.2         1 MS8       0.0844
      3 OXT         1.4510   47.9186    6.0732 O.co2       1 MS8      -0.5643
      4 CA          2.9007   45.9528    6.2182 C.3         1 MS8       0.0305
      5 N           3.6298   46.3753    7.4264 N.4         1 MS8       0.2327
      6 CB          2.9289   44.3926    6.1084 C.3         1 MS8       0.0363
      7 CAS         2.4380   43.7459    4.7587 C.3         1 MS8       0.1229
      8 CAJ         3.4468   43.9509    3.5770 C.3         1 MS8       0.0101
      9 CAN         2.1089   42.3050    4.9786 C.2         1 MS8       0.0769
     10 OAC         1.1907   41.9592    5.9133 O.co2       1 MS8      -0.5451
     11 OAE         2.5184   41.3141    4.1567 O.co2       1 MS8      -0.5451
     12 OAL         1.1995   44.3490    4.3251 O.3         1 MS8      -0.3631
     13 CAR         1.4412   45.1130    3.1332 C.3         1 MS8       0.0848
     14 CAQ         2.5369   44.3193    2.3968 C.3         1 MS8       0.0868
     15 CAH         0.1672   45.3063    2.2750 C.3         1 MS8      -0.0222
     16 CAP        -0.2835   43.9863    1.6097 C.3         1 MS8      -0.0270
     17 CAG         0.9143   43.3282    0.8800 C.3         1 MS8       0.0482
     18 OAK         2.0212   43.1169    1.7774 O.3         1 MS8      -0.3740
     19 H1          3.4306   46.3693    5.3656 H           1 MS8       0.1024
     20 H2          4.5990   46.0546    7.3696 H           1 MS8       0.2010
     21 H3          3.1912   45.9740    8.2570 H           1 MS8       0.2010
     22 H4          3.6242   47.3972    7.5052 H           1 MS8       0.2010
     23 H5          2.3419   44.0094    6.9454 H           1 MS8       0.0359
     24 H6          3.9582   44.0613    6.2742 H           1 MS8       0.0359
     25 H7          4.0659   43.0782    3.3535 H           1 MS8       0.0311
     26 H8          4.1299   44.7822    3.7680 H           1 MS8       0.0311
     27 H9          1.8184   46.1034    3.4066 H           1 MS8       0.0620
     28 H10         3.0655   44.9349    1.6604 H           1 MS8       0.0622
     29 H11         0.3735   46.0441    1.4937 H           1 MS8       0.0292
     30 H12        -0.6400   45.6957    2.8954 H           1 MS8       0.0292
     31 H13        -1.0892   44.1849    0.8976 H           1 MS8       0.0288
     32 H14        -0.6624   43.3035    2.3744 H           1 MS8       0.0288
     33 H15         1.2251   43.9525    0.0385 H           1 MS8       0.0560
     34 H16         0.6056   42.3573    0.4845 H           1 MS8       0.0560
@<TRIPOS>BOND
     1     1     2  ar
     2     2     3  ar
     3     2     4   1
     4     4     5   1
     5     4     6   1
     6     6     7   1
     7     7     8   1
     8     7     9   1
     9     7    12   1
    10     8    14   1
    11     9    10  ar
    12     9    11  ar
    13    12    13   1
    14    13    14   1
    15    13    15   1
    16    14    18   1
    17    15    16   1
    18    16    17   1
    19    17    18   1
    20     4    19   1
    21     5    20   1
    22     5    21   1
    23     5    22   1
    24     6    23   1
    25     6    24   1
    26     8    25   1
    27     8    26   1
    28    13    27   1
    29    14    28   1
    30    15    29   1
    31    15    30   1
    32    16    31   1
    33    16    32   1
    34    17    33   1
    35    17    34   1
@<TRIPOS>SUBSTRUCTURE
     1  MS8      2

