@<TRIPOS>MOLECULE
3gbb_ligand_039
    34    35
SMALL
GAST_HUCK
****
This file was generated by PARSER (from files_GN.cpp)

@<TRIPOS>ATOM
      1 O          -0.6767   44.7788    0.1587 O.co2       1 MS8      -0.5643
      2 C           0.3240   44.0673    0.7252 C.2         1 MS8       0.0844
      3 OXT         1.5755   44.3160    0.2908 O.co2       1 MS8      -0.5643
      4 CA          0.0682   43.0162    1.7305 C.3         1 MS8       0.0305
      5 N           0.5315   41.7184    1.2203 N.4         1 MS8       0.2327
      6 CB          0.6388   43.2953    3.1594 C.3         1 MS8       0.0363
      7 CAS         1.9631   44.1375    3.3283 C.3         1 MS8       0.1229
      8 CAJ         2.2878   44.4502    4.8197 C.3         1 MS8       0.0101
      9 CAN         3.1228   43.4993    2.6553 C.2         1 MS8       0.0769
     10 OAC         4.2563   44.2152    2.4503 O.co2       1 MS8      -0.5451
     11 OAE         3.2577   42.1497    2.6235 O.co2       1 MS8      -0.5451
     12 OAL         1.7912   45.4588    2.7868 O.3         1 MS8      -0.3631
     13 CAR         1.0908   46.2627    3.7429 C.3         1 MS8       0.0848
     14 CAQ         1.4128   45.6705    5.1427 C.3         1 MS8       0.0868
     15 CAH         1.4956   47.7486    3.6109 C.3         1 MS8      -0.0222
     16 CAP         1.0554   48.5690    4.8495 C.3         1 MS8      -0.0270
     17 CAG         1.3487   47.8297    6.1939 C.3         1 MS8       0.0482
     18 OAK         2.0862   46.6025    6.0175 O.3         1 MS8      -0.3740
     19 H1         -1.0145   42.9172    1.8273 H           1 MS8       0.1024
     20 H2          0.3097   40.9838    1.8963 H           1 MS8       0.2010
     21 H3          1.5428   41.7364    1.0713 H           1 MS8       0.2010
     22 H4          0.0675   41.5005    0.3413 H           1 MS8       0.2010
     23 H5          0.7808   42.3354    3.6712 H           1 MS8       0.0359
     24 H6         -0.1522   43.7976    3.7148 H           1 MS8       0.0359
     25 H7          3.3433   44.7213    4.9484 H           1 MS8       0.0311
     26 H8          2.0671   43.6054    5.4818 H           1 MS8       0.0311
     27 H9          0.0162   46.1834    3.5506 H           1 MS8       0.0620
     28 H10         0.4881   45.3274    5.6289 H           1 MS8       0.0622
     29 H11         1.0469   48.1723    2.7050 H           1 MS8       0.0292
     30 H12         2.5773   47.8169    3.5114 H           1 MS8       0.0292
     31 H13        -0.0121   48.7746    4.7741 H           1 MS8       0.0288
     32 H14         1.5665   49.5345    4.8223 H           1 MS8       0.0288
     33 H15         0.4189   47.6128    6.7213 H           1 MS8       0.0560
     34 H16         1.9384   48.4689    6.8471 H           1 MS8       0.0560
@<TRIPOS>BOND
     1     1     2  ar
     2     2     3  ar
     3     2     4   1
     4     4     5   1
     5     4     6   1
     6     6     7   1
     7     7     8   1
     8     7     9   1
     9     7    12   1
    10     8    14   1
    11     9    10  ar
    12     9    11  ar
    13    12    13   1
    14    13    14   1
    15    13    15   1
    16    14    18   1
    17    15    16   1
    18    16    17   1
    19    17    18   1
    20     4    19   1
    21     5    20   1
    22     5    21   1
    23     5    22   1
    24     6    23   1
    25     6    24   1
    26     8    25   1
    27     8    26   1
    28    13    27   1
    29    14    28   1
    30    15    29   1
    31    15    30   1
    32    16    31   1
    33    16    32   1
    34    17    33   1
    35    17    34   1
@<TRIPOS>SUBSTRUCTURE
     1  MS8      2

