@<TRIPOS>MOLECULE
3gbb_ligand_065
    34    35
SMALL
GAST_HUCK
****
This file was generated by PARSER (from files_GN.cpp)

@<TRIPOS>ATOM
      1 O           3.0000   42.1166   -0.0091 O.co2       1 MS8      -0.5643
      2 C           1.8796   42.4504    0.6812 C.2         1 MS8       0.0844
      3 OXT         1.1354   43.5026    0.2703 O.co2       1 MS8      -0.5643
      4 CA          1.6233   41.8486    1.9964 C.3         1 MS8       0.0305
      5 N           1.6159   40.3892    1.8238 N.4         1 MS8       0.2327
      6 CB          2.6536   42.2855    3.0855 C.3         1 MS8       0.0363
      7 CAS         2.7022   43.8197    3.4299 C.3         1 MS8       0.1229
      8 CAJ         3.4026   44.0785    4.7988 C.3         1 MS8       0.0101
      9 CAN         3.3824   44.5954    2.3590 C.2         1 MS8       0.0769
     10 OAC         4.7025   44.4222    2.1258 O.co2       1 MS8      -0.5451
     11 OAE         2.7256   45.4944    1.5912 O.co2       1 MS8      -0.5451
     12 OAL         1.3393   44.2843    3.5795 O.3         1 MS8      -0.3631
     13 CAR         1.1124   44.7652    4.9112 C.3         1 MS8       0.0848
     14 CAQ         2.2286   44.1541    5.7844 C.3         1 MS8       0.0868
     15 CAH         1.1159   46.3193    4.9188 C.3         1 MS8      -0.0222
     16 CAP         1.2687   46.8753    6.3528 C.3         1 MS8      -0.0270
     17 CAG         2.5331   46.2685    7.0133 C.3         1 MS8       0.0482
     18 OAK         2.4795   44.8298    7.0374 O.3         1 MS8      -0.3740
     19 H1          0.6204   42.1326    2.3188 H           1 MS8       0.1024
     20 H2          1.3108   39.9525    2.6935 H           1 MS8       0.2010
     21 H3          2.5514   40.0515    1.5966 H           1 MS8       0.2010
     22 H4          0.9735   40.1386    1.0690 H           1 MS8       0.2010
     23 H5          3.6534   41.9372    2.8150 H           1 MS8       0.0359
     24 H6          2.3796   41.7371    3.9917 H           1 MS8       0.0359
     25 H7          3.9350   45.0270    4.7999 H           1 MS8       0.0311
     26 H8          4.1121   43.2911    5.0753 H           1 MS8       0.0311
     27 H9          0.1366   44.4123    5.2560 H           1 MS8       0.0620
     28 H10         1.9404   43.1328    6.0464 H           1 MS8       0.0622
     29 H11         0.1898   46.6831    4.4771 H           1 MS8       0.0292
     30 H12         1.9360   46.7016    4.3042 H           1 MS8       0.0292
     31 H13         0.3836   46.6163    6.9405 H           1 MS8       0.0288
     32 H14         1.3476   47.9646    6.3203 H           1 MS8       0.0288
     33 H15         2.6119   46.6157    8.0438 H           1 MS8       0.0560
     34 H16         3.4320   46.6021    6.4966 H           1 MS8       0.0560
@<TRIPOS>BOND
     1     1     2  ar
     2     2     3  ar
     3     2     4   1
     4     4     5   1
     5     4     6   1
     6     6     7   1
     7     7     8   1
     8     7     9   1
     9     7    12   1
    10     8    14   1
    11     9    10  ar
    12     9    11  ar
    13    12    13   1
    14    13    14   1
    15    13    15   1
    16    14    18   1
    17    15    16   1
    18    16    17   1
    19    17    18   1
    20     4    19   1
    21     5    20   1
    22     5    21   1
    23     5    22   1
    24     6    23   1
    25     6    24   1
    26     8    25   1
    27     8    26   1
    28    13    27   1
    29    14    28   1
    30    15    29   1
    31    15    30   1
    32    16    31   1
    33    16    32   1
    34    17    33   1
    35    17    34   1
@<TRIPOS>SUBSTRUCTURE
     1  MS8      2

