@<TRIPOS>MOLECULE
3gbb_ligand_031
    34    35
SMALL
GAST_HUCK
****
This file was generated by PARSER (from files_GN.cpp)

@<TRIPOS>ATOM
      1 O           6.4342   46.2208    7.1770 O.co2       1 MS8      -0.5643
      2 C           5.0931   46.3743    7.2015 C.2         1 MS8       0.0844
      3 OXT         4.5945   47.6261    7.0340 O.co2       1 MS8      -0.5643
      4 CA          4.2051   45.1827    7.1803 C.3         1 MS8       0.0305
      5 N           2.8149   45.6066    6.9446 N.4         1 MS8       0.2327
      6 CB          4.7300   44.1083    6.1612 C.3         1 MS8       0.0363
      7 CAS         3.6998   43.2851    5.3186 C.3         1 MS8       0.1229
      8 CAJ         4.3369   42.6795    4.0234 C.3         1 MS8       0.0101
      9 CAN         3.0786   42.2151    6.1429 C.2         1 MS8       0.0769
     10 OAC         1.7667   42.2599    6.4776 O.co2       1 MS8      -0.5451
     11 OAE         3.7923   41.1331    6.5399 O.co2       1 MS8      -0.5451
     12 OAL         2.6516   44.1881    4.8925 O.3         1 MS8      -0.3631
     13 CAR         2.7806   44.3964    3.4753 C.3         1 MS8       0.0848
     14 CAQ         3.3415   43.0641    2.9188 C.3         1 MS8       0.0868
     15 CAH         1.4139   44.7777    2.8442 C.3         1 MS8      -0.0222
     16 CAP         0.4515   43.5637    2.7736 C.3         1 MS8      -0.0270
     17 CAG         1.1643   42.3772    2.0776 C.3         1 MS8       0.0482
     18 OAK         2.3445   42.0105    2.8187 O.3         1 MS8      -0.3740
     19 H1          4.2159   44.7495    8.1926 H           1 MS8       0.1024
     20 H2          2.1914   44.8110    7.1198 H           1 MS8       0.2010
     21 H3          2.7088   45.9178    5.9728 H           1 MS8       0.2010
     22 H4          2.5645   46.3744    7.5871 H           1 MS8       0.2010
     23 H5          5.3600   43.4089    6.7297 H           1 MS8       0.0359
     24 H6          5.4075   44.6053    5.4496 H           1 MS8       0.0359
     25 H7          4.4819   41.5926    4.0707 H           1 MS8       0.0311
     26 H8          5.3147   43.1273    3.8028 H           1 MS8       0.0311
     27 H9          3.4906   45.2093    3.2940 H           1 MS8       0.0620
     28 H10         3.8537   43.2065    1.9635 H           1 MS8       0.0622
     29 H11         1.5725   45.1580    1.8277 H           1 MS8       0.0292
     30 H12         0.9468   45.5735    3.4295 H           1 MS8       0.0292
     31 H13        -0.4554   43.8291    2.2163 H           1 MS8       0.0288
     32 H14         0.1587   43.2681    3.7857 H           1 MS8       0.0288
     33 H15         1.4215   42.6315    1.0451 H           1 MS8       0.0560
     34 H16         0.5010   41.5149    2.0615 H           1 MS8       0.0560
@<TRIPOS>BOND
     1     1     2  ar
     2     2     3  ar
     3     2     4   1
     4     4     5   1
     5     4     6   1
     6     6     7   1
     7     7     8   1
     8     7     9   1
     9     7    12   1
    10     8    14   1
    11     9    10  ar
    12     9    11  ar
    13    12    13   1
    14    13    14   1
    15    13    15   1
    16    14    18   1
    17    15    16   1
    18    16    17   1
    19    17    18   1
    20     4    19   1
    21     5    20   1
    22     5    21   1
    23     5    22   1
    24     6    23   1
    25     6    24   1
    26     8    25   1
    27     8    26   1
    28    13    27   1
    29    14    28   1
    30    15    29   1
    31    15    30   1
    32    16    31   1
    33    16    32   1
    34    17    33   1
    35    17    34   1
@<TRIPOS>SUBSTRUCTURE
     1  MS8      2

