@<TRIPOS>MOLECULE
3gbb_ligand_029
    34    35
SMALL
GAST_HUCK
****
This file was generated by PARSER (from files_GN.cpp)

@<TRIPOS>ATOM
      1 O           0.2947   47.9374    2.6109 O.co2       1 MS8      -0.5643
      2 C           0.4264   46.6008    2.4386 C.2         1 MS8       0.0844
      3 OXT        -0.6793   45.8384    2.5199 O.co2       1 MS8      -0.5643
      4 CA          1.7549   45.9791    2.3199 C.3         1 MS8       0.0305
      5 N           2.4904   46.5743    1.1973 N.4         1 MS8       0.2327
      6 CB          2.5853   46.0751    3.6331 C.3         1 MS8       0.0363
      7 CAS         1.9806   45.3802    4.9166 C.3         1 MS8       0.1229
      8 CAJ         3.0553   44.7931    5.8732 C.3         1 MS8       0.0101
      9 CAN         1.0714   46.2987    5.6558 C.2         1 MS8       0.0769
     10 OAC         0.1511   45.7691    6.4920 O.co2       1 MS8      -0.5451
     11 OAE         1.4639   47.5617    5.9418 O.co2       1 MS8      -0.5451
     12 OAL         1.2297   44.2081    4.5554 O.3         1 MS8      -0.3631
     13 CAR         2.1497   43.1208    4.3853 C.3         1 MS8       0.0848
     14 CAQ         3.4180   43.4492    5.2199 C.3         1 MS8       0.0868
     15 CAH         1.4796   41.8032    4.8306 C.3         1 MS8      -0.0222
     16 CAP         2.5299   40.6693    4.8878 C.3         1 MS8      -0.0270
     17 CAG         3.8427   41.1147    5.6048 C.3         1 MS8       0.0482
     18 OAK         3.7502   42.4318    6.1896 O.3         1 MS8      -0.3740
     19 H1          1.6214   44.9272    2.0658 H           1 MS8       0.1024
     20 H2          3.4098   46.1325    1.1200 H           1 MS8       0.2010
     21 H3          2.6079   47.5784    1.3496 H           1 MS8       0.2010
     22 H4          1.9744   46.4160    0.3272 H           1 MS8       0.2010
     23 H5          2.8088   47.1264    3.8318 H           1 MS8       0.0359
     24 H6          3.5519   45.6161    3.4089 H           1 MS8       0.0359
     25 H7          2.6415   44.6072    6.8693 H           1 MS8       0.0311
     26 H8          3.9240   45.4472    5.9746 H           1 MS8       0.0311
     27 H9          2.4241   43.0325    3.3253 H           1 MS8       0.0620
     28 H10         4.2782   43.5954    4.5539 H           1 MS8       0.0622
     29 H11         0.6761   41.5422    4.1429 H           1 MS8       0.0292
     30 H12         1.0481   41.9386    5.8219 H           1 MS8       0.0292
     31 H13         2.7652   40.3529    3.8666 H           1 MS8       0.0288
     32 H14         2.0846   39.8199    5.4036 H           1 MS8       0.0288
     33 H15         4.6779   41.0922    4.8987 H           1 MS8       0.0560
     34 H16         4.0818   40.4143    6.4063 H           1 MS8       0.0560
@<TRIPOS>BOND
     1     1     2  ar
     2     2     3  ar
     3     2     4   1
     4     4     5   1
     5     4     6   1
     6     6     7   1
     7     7     8   1
     8     7     9   1
     9     7    12   1
    10     8    14   1
    11     9    10  ar
    12     9    11  ar
    13    12    13   1
    14    13    14   1
    15    13    15   1
    16    14    18   1
    17    15    16   1
    18    16    17   1
    19    17    18   1
    20     4    19   1
    21     5    20   1
    22     5    21   1
    23     5    22   1
    24     6    23   1
    25     6    24   1
    26     8    25   1
    27     8    26   1
    28    13    27   1
    29    14    28   1
    30    15    29   1
    31    15    30   1
    32    16    31   1
    33    16    32   1
    34    17    33   1
    35    17    34   1
@<TRIPOS>SUBSTRUCTURE
     1  MS8      2

