@<TRIPOS>MOLECULE
3gbb_ligand_026
    34    35
SMALL
GAST_HUCK
****
This file was generated by PARSER (from files_GN.cpp)

@<TRIPOS>ATOM
      1 O           0.5142   39.0998    5.6743 O.co2       1 MS8      -0.5643
      2 C           1.1092   39.0884    4.4582 C.2         1 MS8       0.0844
      3 OXT         1.1059   37.9121    3.7908 O.co2       1 MS8      -0.5643
      4 CA          1.6735   40.3052    3.8149 C.3         1 MS8       0.0305
      5 N           1.0451   40.4373    2.4884 N.4         1 MS8       0.2327
      6 CB          1.4968   41.5945    4.6827 C.3         1 MS8       0.0363
      7 CAS         2.1024   42.9512    4.1700 C.3         1 MS8       0.1229
      8 CAJ         3.6540   43.0156    4.2523 C.3         1 MS8       0.0101
      9 CAN         1.5520   43.3471    2.8467 C.2         1 MS8       0.0769
     10 OAC         0.2234   43.5195    2.6831 O.co2       1 MS8      -0.5451
     11 OAE         2.3280   43.4634    1.7399 O.co2       1 MS8      -0.5451
     12 OAL         1.6740   44.0070    5.0476 O.3         1 MS8      -0.3631
     13 CAR         2.6179   44.1623    6.1111 C.3         1 MS8       0.0848
     14 CAQ         3.9447   43.4768    5.6896 C.3         1 MS8       0.0868
     15 CAH         2.8057   45.6694    6.4121 C.3         1 MS8      -0.0222
     16 CAP         3.9897   45.8956    7.3855 C.3         1 MS8      -0.0270
     17 CAG         5.2398   45.0427    7.0037 C.3         1 MS8       0.0482
     18 OAK         5.0946   44.3519    5.7451 O.3         1 MS8      -0.3740
     19 H1          2.7370   40.1186    3.6584 H           1 MS8       0.1024
     20 H2          1.5685   41.1108    1.9261 H           1 MS8       0.2010
     21 H3          0.0817   40.7571    2.5967 H           1 MS8       0.2010
     22 H4          1.0444   39.5371    2.0090 H           1 MS8       0.2010
     23 H5          1.9298   41.3851    5.6646 H           1 MS8       0.0359
     24 H6          0.4281   41.7419    4.8484 H           1 MS8       0.0359
     25 H7          4.0555   43.7608    3.5594 H           1 MS8       0.0311
     26 H8          4.1260   42.0550    4.0309 H           1 MS8       0.0311
     27 H9          2.2172   43.6697    7.0020 H           1 MS8       0.0620
     28 H10         4.1296   42.6004    6.3200 H           1 MS8       0.0622
     29 H11         1.8868   46.0791    6.8376 H           1 MS8       0.0292
     30 H12         3.0100   46.1981    5.4768 H           1 MS8       0.0292
     31 H13         3.6679   45.6334    8.3973 H           1 MS8       0.0288
     32 H14         4.2433   46.9586    7.3855 H           1 MS8       0.0288
     33 H15         5.4480   44.3120    7.7900 H           1 MS8       0.0560
     34 H16         6.1112   45.6959    6.9263 H           1 MS8       0.0560
@<TRIPOS>BOND
     1     1     2  ar
     2     2     3  ar
     3     2     4   1
     4     4     5   1
     5     4     6   1
     6     6     7   1
     7     7     8   1
     8     7     9   1
     9     7    12   1
    10     8    14   1
    11     9    10  ar
    12     9    11  ar
    13    12    13   1
    14    13    14   1
    15    13    15   1
    16    14    18   1
    17    15    16   1
    18    16    17   1
    19    17    18   1
    20     4    19   1
    21     5    20   1
    22     5    21   1
    23     5    22   1
    24     6    23   1
    25     6    24   1
    26     8    25   1
    27     8    26   1
    28    13    27   1
    29    14    28   1
    30    15    29   1
    31    15    30   1
    32    16    31   1
    33    16    32   1
    34    17    33   1
    35    17    34   1
@<TRIPOS>SUBSTRUCTURE
     1  MS8      2

