@<TRIPOS>MOLECULE
3gbb_ligand_074
    34    35
SMALL
GAST_HUCK
****
This file was generated by PARSER (from files_GN.cpp)

@<TRIPOS>ATOM
      1 O           5.0478   44.2628    8.1739 O.co2       1 MS8      -0.5643
      2 C           3.7457   43.9096    8.1200 C.2         1 MS8       0.0844
      3 OXT         3.2813   43.0000    9.0275 O.co2       1 MS8      -0.5643
      4 CA          2.8743   44.3855    7.0239 C.3         1 MS8       0.0305
      5 N           2.9301   45.8556    7.0007 N.4         1 MS8       0.2327
      6 CB          3.2851   43.7346    5.6625 C.3         1 MS8       0.0363
      7 CAS         2.7376   44.4251    4.3626 C.3         1 MS8       0.1229
      8 CAJ         1.2010   44.6771    4.4479 C.3         1 MS8       0.0101
      9 CAN         3.4608   45.6889    4.0868 C.2         1 MS8       0.0769
     10 OAC         4.5758   46.0073    4.7663 O.co2       1 MS8      -0.5451
     11 OAE         3.0186   46.5522    3.1386 O.co2       1 MS8      -0.5451
     12 OAL         2.9320   43.5002    3.2695 O.3         1 MS8      -0.3631
     13 CAR         1.6741   43.1162    2.6934 C.3         1 MS8       0.0848
     14 CAQ         0.5988   43.4468    3.7458 C.3         1 MS8       0.0868
     15 CAH         1.4654   43.8635    1.3482 C.3         1 MS8      -0.0222
     16 CAP        -0.0117   43.8225    0.8949 C.3         1 MS8      -0.0270
     17 CAG        -0.9239   44.3520    2.0285 C.3         1 MS8       0.0482
     18 OAK        -0.7505   43.5935    3.2430 O.3         1 MS8      -0.3740
     19 H1          1.8436   44.1006    7.2544 H           1 MS8       0.1024
     20 H2          2.2461   46.2087    6.3253 H           1 MS8       0.2010
     21 H3          3.8710   46.1556    6.7241 H           1 MS8       0.2010
     22 H4          2.7080   46.2249    7.9226 H           1 MS8       0.2010
     23 H5          2.9480   42.6942    5.6771 H           1 MS8       0.0359
     24 H6          4.3759   43.7133    5.6007 H           1 MS8       0.0359
     25 H7          0.9063   45.5908    3.9004 H           1 MS8       0.0311
     26 H8          0.8160   44.7655    5.4810 H           1 MS8       0.0311
     27 H9          1.6813   42.0399    2.5065 H           1 MS8       0.0620
     28 H10         0.5631   42.6352    4.4794 H           1 MS8       0.0622
     29 H11         2.0902   43.4048    0.5798 H           1 MS8       0.0292
     30 H12         1.7700   44.9090    1.4488 H           1 MS8       0.0292
     31 H13        -0.2961   42.7957    0.6526 H           1 MS8       0.0288
     32 H14        -0.1428   44.4371    0.0018 H           1 MS8       0.0288
     33 H15        -1.9686   44.2563    1.7203 H           1 MS8       0.0560
     34 H16        -0.7258   45.4155    2.2093 H           1 MS8       0.0560
@<TRIPOS>BOND
     1     1     2  ar
     2     2     3  ar
     3     2     4   1
     4     4     5   1
     5     4     6   1
     6     6     7   1
     7     7     8   1
     8     7     9   1
     9     7    12   1
    10     8    14   1
    11     9    10  ar
    12     9    11  ar
    13    12    13   1
    14    13    14   1
    15    13    15   1
    16    14    18   1
    17    15    16   1
    18    16    17   1
    19    17    18   1
    20     4    19   1
    21     5    20   1
    22     5    21   1
    23     5    22   1
    24     6    23   1
    25     6    24   1
    26     8    25   1
    27     8    26   1
    28    13    27   1
    29    14    28   1
    30    15    29   1
    31    15    30   1
    32    16    31   1
    33    16    32   1
    34    17    33   1
    35    17    34   1
@<TRIPOS>SUBSTRUCTURE
     1  MS8      2

