@<TRIPOS>MOLECULE
3gbb_ligand_014
    34    35
SMALL
GAST_HUCK
****
This file was generated by PARSER (from files_GN.cpp)

@<TRIPOS>ATOM
      1 O           5.6466   45.4536    0.3121 O.co2       1 MS8      -0.5643
      2 C           5.9373   44.8585    1.4925 C.2         1 MS8       0.0844
      3 OXT         7.2414   44.5357    1.6713 O.co2       1 MS8      -0.5643
      4 CA          4.8692   44.1025    2.1930 C.3         1 MS8       0.0305
      5 N           5.4003   43.5730    3.4579 N.4         1 MS8       0.2327
      6 CB          3.5404   44.9164    2.4066 C.3         1 MS8       0.0363
      7 CAS         2.1513   44.1665    2.5375 C.3         1 MS8       0.1229
      8 CAJ         1.6173   43.9735    3.9899 C.3         1 MS8       0.0101
      9 CAN         1.1278   44.9261    1.7472 C.2         1 MS8       0.0769
     10 OAC         0.3411   45.8547    2.3390 O.co2       1 MS8      -0.5451
     11 OAE         1.0202   44.8035    0.4030 O.co2       1 MS8      -0.5451
     12 OAL         2.2135   42.8307    2.0010 O.3         1 MS8      -0.3631
     13 CAR         2.4143   41.8843    3.0651 C.3         1 MS8       0.0848
     14 CAQ         2.0355   42.5570    4.4052 C.3         1 MS8       0.0868
     15 CAH         1.6219   40.5795    2.8015 C.3         1 MS8      -0.0222
     16 CAP         1.6433   39.6764    4.0591 C.3         1 MS8      -0.0270
     17 CAG         1.2829   40.4757    5.3508 C.3         1 MS8       0.0482
     18 OAK         0.9834   41.8693    5.1173 O.3         1 MS8      -0.3740
     19 H1          4.6693   43.2481    1.5509 H           1 MS8       0.1024
     20 H2          4.6444   43.2628    4.0643 H           1 MS8       0.2010
     21 H3          5.9393   44.2974    3.9378 H           1 MS8       0.2010
     22 H4          6.0065   42.7768    3.2423 H           1 MS8       0.2010
     23 H5          3.4608   45.6013    1.5569 H           1 MS8       0.0359
     24 H6          3.6710   45.5523    3.2833 H           1 MS8       0.0359
     25 H7          0.5244   44.0328    4.0337 H           1 MS8       0.0311
     26 H8          2.0204   44.7198    4.6777 H           1 MS8       0.0311
     27 H9          3.4690   41.6065    3.1110 H           1 MS8       0.0620
     28 H10         2.9076   42.6204    5.0617 H           1 MS8       0.0622
     29 H11         2.0600   40.0447    1.9532 H           1 MS8       0.0292
     30 H12         0.5847   40.8218    2.5509 H           1 MS8       0.0292
     31 H13         2.6449   39.2445    4.1686 H           1 MS8       0.0288
     32 H14         0.9498   38.8448    3.9171 H           1 MS8       0.0288
     33 H15         2.1100   40.4159    6.0606 H           1 MS8       0.0560
     34 H16         0.4090   40.0313    5.8315 H           1 MS8       0.0560
@<TRIPOS>BOND
     1     1     2  ar
     2     2     3  ar
     3     2     4   1
     4     4     5   1
     5     4     6   1
     6     6     7   1
     7     7     8   1
     8     7     9   1
     9     7    12   1
    10     8    14   1
    11     9    10  ar
    12     9    11  ar
    13    12    13   1
    14    13    14   1
    15    13    15   1
    16    14    18   1
    17    15    16   1
    18    16    17   1
    19    17    18   1
    20     4    19   1
    21     5    20   1
    22     5    21   1
    23     5    22   1
    24     6    23   1
    25     6    24   1
    26     8    25   1
    27     8    26   1
    28    13    27   1
    29    14    28   1
    30    15    29   1
    31    15    30   1
    32    16    31   1
    33    16    32   1
    34    17    33   1
    35    17    34   1
@<TRIPOS>SUBSTRUCTURE
     1  MS8      2

