@<TRIPOS>MOLECULE
3gbb_ligand_030
    34    35
SMALL
GAST_HUCK
****
This file was generated by PARSER (from files_GN.cpp)

@<TRIPOS>ATOM
      1 O           3.3132   47.0144    6.2243 O.co2       1 MS8      -0.5643
      2 C           3.3805   45.6659    6.2845 C.2         1 MS8       0.0844
      3 OXT         4.5465   45.1173    6.6962 O.co2       1 MS8      -0.5643
      4 CA          2.1550   44.8381    6.2738 C.3         1 MS8       0.0305
      5 N           0.9735   45.6737    6.5421 N.4         1 MS8       0.2327
      6 CB          2.0391   43.9261    5.0097 C.3         1 MS8       0.0363
      7 CAS         1.5753   44.5352    3.6385 C.3         1 MS8       0.1229
      8 CAJ         0.0848   45.0145    3.6376 C.3         1 MS8       0.0101
      9 CAN         2.5480   45.5459    3.1476 C.2         1 MS8       0.0769
     10 OAC         3.7868   45.1658    2.7683 O.co2       1 MS8      -0.5451
     11 OAE         2.3187   46.8708    3.2561 O.co2       1 MS8      -0.5451
     12 OAL         1.6161   43.4815    2.6484 O.3         1 MS8      -0.3631
     13 CAR         0.2890   42.9657    2.4917 C.3         1 MS8       0.0848
     14 CAQ        -0.5818   44.2378    2.4965 C.3         1 MS8       0.0868
     15 CAH         0.0888   42.1231    1.2095 C.3         1 MS8      -0.0222
     16 CAP         0.0795   43.0042   -0.0579 C.3         1 MS8      -0.0270
     17 CAG        -0.8875   44.1979    0.1069 C.3         1 MS8       0.0482
     18 OAK        -0.5142   44.9783    1.2563 O.3         1 MS8      -0.3740
     19 H1          2.2321   44.1719    7.1331 H           1 MS8       0.1024
     20 H2          0.1395   45.0901    6.6490 H           1 MS8       0.2010
     21 H3          0.8269   46.3330    5.7719 H           1 MS8       0.2010
     22 H4          1.1222   46.2030    7.4021 H           1 MS8       0.2010
     23 H5          1.3422   43.1231    5.2621 H           1 MS8       0.0359
     24 H6          3.0051   43.4371    4.8523 H           1 MS8       0.0359
     25 H7         -0.0451   46.0893    3.5134 H           1 MS8       0.0311
     26 H8         -0.4166   44.7263    4.5621 H           1 MS8       0.0311
     27 H9          0.0625   42.3291    3.3522 H           1 MS8       0.0620
     28 H10        -1.6271   44.0156    2.7308 H           1 MS8       0.0622
     29 H11        -0.8674   41.5941    1.2792 H           1 MS8       0.0292
     30 H12         0.8800   41.3740    1.1353 H           1 MS8       0.0292
     31 H13        -0.2070   42.4083   -0.9270 H           1 MS8       0.0288
     32 H14         1.0850   43.3971   -0.2119 H           1 MS8       0.0288
     33 H15        -1.9224   43.8489    0.1926 H           1 MS8       0.0560
     34 H16        -0.8241   44.8317   -0.7777 H           1 MS8       0.0560
@<TRIPOS>BOND
     1     1     2  ar
     2     2     3  ar
     3     2     4   1
     4     4     5   1
     5     4     6   1
     6     6     7   1
     7     7     8   1
     8     7     9   1
     9     7    12   1
    10     8    14   1
    11     9    10  ar
    12     9    11  ar
    13    12    13   1
    14    13    14   1
    15    13    15   1
    16    14    18   1
    17    15    16   1
    18    16    17   1
    19    17    18   1
    20     4    19   1
    21     5    20   1
    22     5    21   1
    23     5    22   1
    24     6    23   1
    25     6    24   1
    26     8    25   1
    27     8    26   1
    28    13    27   1
    29    14    28   1
    30    15    29   1
    31    15    30   1
    32    16    31   1
    33    16    32   1
    34    17    33   1
    35    17    34   1
@<TRIPOS>SUBSTRUCTURE
     1  MS8      2

