@<TRIPOS>MOLECULE
3gbb_ligand_003
    34    35
SMALL
GAST_HUCK
****
This file was generated by PARSER (from files_GN.cpp)

@<TRIPOS>ATOM
      1 O          -1.3880   43.2028   -1.5640 O.co2       1 MS8      -0.5643
      2 C          -0.9607   43.9933   -0.5512 C.2         1 MS8       0.0844
      3 OXT        -0.6840   45.2832   -0.8468 O.co2       1 MS8      -0.5643
      4 CA         -0.7175   43.4605    0.8178 C.3         1 MS8       0.0305
      5 N          -1.0687   42.0273    0.8863 N.4         1 MS8       0.2327
      6 CB          0.7442   43.7143    1.3394 C.3         1 MS8       0.0363
      7 CAS         0.9851   43.7054    2.8978 C.3         1 MS8       0.1229
      8 CAJ         0.2086   44.8557    3.6185 C.3         1 MS8       0.0101
      9 CAN         0.7721   42.3574    3.4998 C.2         1 MS8       0.0769
     10 OAC         0.7812   42.2129    4.8418 O.co2       1 MS8      -0.5451
     11 OAE         1.1651   41.2545    2.8159 O.co2       1 MS8      -0.5451
     12 OAL         2.3859   43.9784    3.1073 O.3         1 MS8      -0.3631
     13 CAR         2.5687   45.1946    3.8494 C.3         1 MS8       0.0848
     14 CAQ         1.2488   45.9790    3.7033 C.3         1 MS8       0.0868
     15 CAH         2.9544   44.9053    5.3296 C.3         1 MS8      -0.0222
     16 CAP         2.7163   46.1258    6.2503 C.3         1 MS8      -0.0270
     17 CAG         1.2759   46.6617    6.0713 C.3         1 MS8       0.0482
     18 OAK         1.0065   46.9977    4.6973 O.3         1 MS8      -0.3740
     19 H1         -1.4338   43.9634    1.4610 H           1 MS8       0.1024
     20 H2         -0.9423   41.6991    1.8419 H           1 MS8       0.2010
     21 H3         -0.4742   41.4838    0.2508 H           1 MS8       0.2010
     22 H4         -2.0580   41.9016    0.6383 H           1 MS8       0.2010
     23 H5          1.0808   44.6874    0.9684 H           1 MS8       0.0359
     24 H6          1.4026   42.9788    0.8618 H           1 MS8       0.0359
     25 H7         -0.1090   44.5653    4.6204 H           1 MS8       0.0311
     26 H8         -0.6736   45.2046    3.0803 H           1 MS8       0.0311
     27 H9          3.3758   45.7627    3.3825 H           1 MS8       0.0620
     28 H10         1.2594   46.4990    2.7393 H           1 MS8       0.0622
     29 H11         4.0078   44.6201    5.3775 H           1 MS8       0.0292
     30 H12         2.3695   44.0676    5.7130 H           1 MS8       0.0292
     31 H13         3.4285   46.9130    6.0033 H           1 MS8       0.0288
     32 H14         2.8755   45.8406    7.2947 H           1 MS8       0.0288
     33 H15         1.1548   47.5711    6.6620 H           1 MS8       0.0560
     34 H16         0.5506   45.9301    6.4379 H           1 MS8       0.0560
@<TRIPOS>BOND
     1     1     2  ar
     2     2     3  ar
     3     2     4   1
     4     4     5   1
     5     4     6   1
     6     6     7   1
     7     7     8   1
     8     7     9   1
     9     7    12   1
    10     8    14   1
    11     9    10  ar
    12     9    11  ar
    13    12    13   1
    14    13    14   1
    15    13    15   1
    16    14    18   1
    17    15    16   1
    18    16    17   1
    19    17    18   1
    20     4    19   1
    21     5    20   1
    22     5    21   1
    23     5    22   1
    24     6    23   1
    25     6    24   1
    26     8    25   1
    27     8    26   1
    28    13    27   1
    29    14    28   1
    30    15    29   1
    31    15    30   1
    32    16    31   1
    33    16    32   1
    34    17    33   1
    35    17    34   1
@<TRIPOS>SUBSTRUCTURE
     1  MS8      2

