@<TRIPOS>MOLECULE
3gbb_ligand_041
    34    35
SMALL
GAST_HUCK
****
This file was generated by PARSER (from files_GN.cpp)

@<TRIPOS>ATOM
      1 O           3.4158   48.5945    0.5175 O.co2       1 MS8      -0.5643
      2 C           2.8156   47.3846    0.5065 C.2         1 MS8       0.0844
      3 OXT         2.6557   46.7802   -0.6940 O.co2       1 MS8      -0.5643
      4 CA          2.4060   46.7634    1.7841 C.3         1 MS8       0.0305
      5 N           1.5277   47.6990    2.5041 N.4         1 MS8       0.2327
      6 CB          1.7622   45.3507    1.6202 C.3         1 MS8       0.0363
      7 CAS         1.4032   44.5319    2.9153 C.3         1 MS8       0.1229
      8 CAJ         2.6254   44.2876    3.8578 C.3         1 MS8       0.0101
      9 CAN         0.2197   45.0740    3.6434 C.2         1 MS8       0.0769
     10 OAC        -0.2095   44.4911    4.7850 O.co2       1 MS8      -0.5451
     11 OAE        -0.6678   45.8968    3.0403 O.co2       1 MS8      -0.5451
     12 OAL         1.0039   43.2162    2.4627 O.3         1 MS8      -0.3631
     13 CAR         1.9702   42.2234    2.8555 C.3         1 MS8       0.0848
     14 CAQ         3.2330   42.9969    3.2966 C.3         1 MS8       0.0868
     15 CAH         1.3835   41.3315    3.9823 C.3         1 MS8      -0.0222
     16 CAP         2.4804   40.5726    4.7643 C.3         1 MS8      -0.0270
     17 CAG         3.5783   41.5460    5.2545 C.3         1 MS8       0.0482
     18 OAK         4.1472   42.2893    4.1634 O.3         1 MS8      -0.3740
     19 H1          3.3170   46.6705    2.3614 H           1 MS8       0.1024
     20 H2          1.2659   47.3067    3.4087 H           1 MS8       0.2010
     21 H3          0.6902   47.8684    1.9460 H           1 MS8       0.2010
     22 H4          2.0168   48.5821    2.6564 H           1 MS8       0.2010
     23 H5          2.4598   44.7450    1.0384 H           1 MS8       0.0359
     24 H6          0.8616   45.4504    1.0062 H           1 MS8       0.0359
     25 H7          2.3140   44.1295    4.8922 H           1 MS8       0.0311
     26 H8          3.3653   45.0831    3.8692 H           1 MS8       0.0311
     27 H9          2.2058   41.5948    1.9926 H           1 MS8       0.0620
     28 H10         3.8108   43.2518    2.4021 H           1 MS8       0.0622
     29 H11         0.6963   40.6069    3.5400 H           1 MS8       0.0292
     30 H12         0.8120   41.9430    4.6852 H           1 MS8       0.0292
     31 H13         2.9335   39.8141    4.1187 H           1 MS8       0.0288
     32 H14         2.0290   40.0745    5.6235 H           1 MS8       0.0288
     33 H15         4.3827   40.9720    5.7176 H           1 MS8       0.0560
     34 H16         3.1770   42.2235    6.0110 H           1 MS8       0.0560
@<TRIPOS>BOND
     1     1     2  ar
     2     2     3  ar
     3     2     4   1
     4     4     5   1
     5     4     6   1
     6     6     7   1
     7     7     8   1
     8     7     9   1
     9     7    12   1
    10     8    14   1
    11     9    10  ar
    12     9    11  ar
    13    12    13   1
    14    13    14   1
    15    13    15   1
    16    14    18   1
    17    15    16   1
    18    16    17   1
    19    17    18   1
    20     4    19   1
    21     5    20   1
    22     5    21   1
    23     5    22   1
    24     6    23   1
    25     6    24   1
    26     8    25   1
    27     8    26   1
    28    13    27   1
    29    14    28   1
    30    15    29   1
    31    15    30   1
    32    16    31   1
    33    16    32   1
    34    17    33   1
    35    17    34   1
@<TRIPOS>SUBSTRUCTURE
     1  MS8      2

