@<TRIPOS>MOLECULE
3gbb_ligand_066
    34    35
SMALL
GAST_HUCK
****
This file was generated by PARSER (from files_GN.cpp)

@<TRIPOS>ATOM
      1 O           2.0334   40.4569    1.0184 O.co2       1 MS8      -0.5643
      2 C           2.1617   39.7460    2.1605 C.2         1 MS8       0.0844
      3 OXT         2.8439   38.5671    2.0955 O.co2       1 MS8      -0.5643
      4 CA          1.9908   40.4154    3.4575 C.3         1 MS8       0.0305
      5 N           1.7228   39.3974    4.4880 N.4         1 MS8       0.2327
      6 CB          3.2191   41.3295    3.7678 C.3         1 MS8       0.0363
      7 CAS         3.3836   41.8580    5.2395 C.3         1 MS8       0.1229
      8 CAJ         2.0383   42.2144    5.9330 C.3         1 MS8       0.0101
      9 CAN         4.2156   40.9700    6.0968 C.2         1 MS8       0.0769
     10 OAC         4.5604   39.7086    5.7440 O.co2       1 MS8      -0.5451
     11 OAE         4.8147   41.4630    7.2021 O.co2       1 MS8      -0.5451
     12 OAL         4.0745   43.1196    5.1996 O.3         1 MS8      -0.3631
     13 CAR         3.1061   44.1773    5.0940 C.3         1 MS8       0.0848
     14 CAQ         1.6952   43.5912    5.3578 C.3         1 MS8       0.0868
     15 CAH         3.4142   45.2996    6.1136 C.3         1 MS8      -0.0222
     16 CAP         2.2977   46.3754    6.0753 C.3         1 MS8      -0.0270
     17 CAG         0.8694   45.7530    6.0547 C.3         1 MS8       0.0482
     18 OAK         0.8842   44.3319    6.2972 O.3         1 MS8      -0.3740
     19 H1          1.0955   41.0445    3.3926 H           1 MS8       0.1024
     20 H2          1.7339   39.8418    5.4159 H           1 MS8       0.2010
     21 H3          2.4400   38.6632    4.4454 H           1 MS8       0.2010
     22 H4          0.7870   39.0056    4.3157 H           1 MS8       0.2010
     23 H5          3.1526   42.1867    3.0870 H           1 MS8       0.0359
     24 H6          4.1385   40.8099    3.4888 H           1 MS8       0.0359
     25 H7          2.1755   42.3132    7.0131 H           1 MS8       0.0311
     26 H8          1.2345   41.4835    5.7622 H           1 MS8       0.0311
     27 H9          3.1526   44.5895    4.0799 H           1 MS8       0.0620
     28 H10         1.1434   43.4734    4.4137 H           1 MS8       0.0622
     29 H11         4.3795   45.7568    5.8917 H           1 MS8       0.0292
     30 H12         3.4625   44.8735    7.1194 H           1 MS8       0.0292
     31 H13         2.4274   46.9787    5.1696 H           1 MS8       0.0288
     32 H14         2.4114   47.0371    6.9362 H           1 MS8       0.0288
     33 H15         0.3945   45.9411    5.0859 H           1 MS8       0.0560
     34 H16         0.2469   46.2180    6.8206 H           1 MS8       0.0560
@<TRIPOS>BOND
     1     1     2  ar
     2     2     3  ar
     3     2     4   1
     4     4     5   1
     5     4     6   1
     6     6     7   1
     7     7     8   1
     8     7     9   1
     9     7    12   1
    10     8    14   1
    11     9    10  ar
    12     9    11  ar
    13    12    13   1
    14    13    14   1
    15    13    15   1
    16    14    18   1
    17    15    16   1
    18    16    17   1
    19    17    18   1
    20     4    19   1
    21     5    20   1
    22     5    21   1
    23     5    22   1
    24     6    23   1
    25     6    24   1
    26     8    25   1
    27     8    26   1
    28    13    27   1
    29    14    28   1
    30    15    29   1
    31    15    30   1
    32    16    31   1
    33    16    32   1
    34    17    33   1
    35    17    34   1
@<TRIPOS>SUBSTRUCTURE
     1  MS8      2

