@<TRIPOS>MOLECULE
3gbb_ligand_048
    34    35
SMALL
GAST_HUCK
****
This file was generated by PARSER (from files_GN.cpp)

@<TRIPOS>ATOM
      1 O           3.2984   44.7255    7.0782 O.co2       1 MS8      -0.5643
      2 C           2.7259   45.7813    6.4629 C.2         1 MS8       0.0844
      3 OXT         3.3550   46.9753    6.5566 O.co2       1 MS8      -0.5643
      4 CA          1.3653   45.6886    5.8884 C.3         1 MS8       0.0305
      5 N           0.4468   46.4763    6.7168 N.4         1 MS8       0.2327
      6 CB          1.2920   46.1655    4.3986 C.3         1 MS8       0.0363
      7 CAS         1.5790   45.1202    3.2548 C.3         1 MS8       0.1229
      8 CAJ         0.4654   44.0260    3.1661 C.3         1 MS8       0.0101
      9 CAN         1.7665   45.8425    1.9537 C.2         1 MS8       0.0769
     10 OAC         2.5824   46.9219    1.9002 O.co2       1 MS8      -0.5451
     11 OAE         1.6650   45.1870    0.7725 O.co2       1 MS8      -0.5451
     12 OAL         2.8150   44.4211    3.4800 O.3         1 MS8      -0.3631
     13 CAR         2.5617   43.1144    4.0170 C.3         1 MS8       0.0848
     14 CAQ         1.0505   42.7821    3.8566 C.3         1 MS8       0.0868
     15 CAH         3.4506   42.0527    3.3248 C.3         1 MS8      -0.0222
     16 CAP         3.0218   40.6163    3.7192 C.3         1 MS8      -0.0270
     17 CAG         1.4779   40.4215    3.6646 C.3         1 MS8       0.0482
     18 OAK         0.8053   41.5656    3.1012 O.3         1 MS8      -0.3740
     19 H1          1.0107   44.6656    5.9737 H           1 MS8       0.1024
     20 H2         -0.5061   46.3279    6.3874 H           1 MS8       0.2010
     21 H3          0.6816   47.4677    6.6562 H           1 MS8       0.2010
     22 H4          0.5040   46.1743    7.6852 H           1 MS8       0.2010
     23 H5          1.9557   47.0343    4.2984 H           1 MS8       0.0359
     24 H6          0.2885   46.5597    4.2065 H           1 MS8       0.0359
     25 H7          0.2049   43.7681    2.1333 H           1 MS8       0.0311
     26 H8         -0.4593   44.3369    3.6589 H           1 MS8       0.0311
     27 H9          2.8130   43.1275    5.0767 H           1 MS8       0.0620
     28 H10         0.5792   42.6624    4.8385 H           1 MS8       0.0622
     29 H11         4.4978   42.2211    3.5833 H           1 MS8       0.0292
     30 H12         3.3464   42.1724    2.2448 H           1 MS8       0.0292
     31 H13         3.3795   40.4017    4.7302 H           1 MS8       0.0288
     32 H14         3.5050   39.9116    3.0447 H           1 MS8       0.0288
     33 H15         1.0877   40.2244    4.6654 H           1 MS8       0.0560
     34 H16         1.2328   39.5591    3.0498 H           1 MS8       0.0560
@<TRIPOS>BOND
     1     1     2  ar
     2     2     3  ar
     3     2     4   1
     4     4     5   1
     5     4     6   1
     6     6     7   1
     7     7     8   1
     8     7     9   1
     9     7    12   1
    10     8    14   1
    11     9    10  ar
    12     9    11  ar
    13    12    13   1
    14    13    14   1
    15    13    15   1
    16    14    18   1
    17    15    16   1
    18    16    17   1
    19    17    18   1
    20     4    19   1
    21     5    20   1
    22     5    21   1
    23     5    22   1
    24     6    23   1
    25     6    24   1
    26     8    25   1
    27     8    26   1
    28    13    27   1
    29    14    28   1
    30    15    29   1
    31    15    30   1
    32    16    31   1
    33    16    32   1
    34    17    33   1
    35    17    34   1
@<TRIPOS>SUBSTRUCTURE
     1  MS8      2

