@<TRIPOS>MOLECULE
3gbb_ligand_020
    34    35
SMALL
GAST_HUCK
****
This file was generated by PARSER (from files_GN.cpp)

@<TRIPOS>ATOM
      1 O           0.5096   39.3322    5.8568 O.co2       1 MS8      -0.5643
      2 C           1.1240   39.2289    4.6546 C.2         1 MS8       0.0844
      3 OXT         1.0970   38.0151    4.0573 O.co2       1 MS8      -0.5643
      4 CA          1.7659   40.3810    3.9731 C.3         1 MS8       0.0305
      5 N           1.1448   40.4897    2.6417 N.4         1 MS8       0.2327
      6 CB          1.6784   41.7200    4.7791 C.3         1 MS8       0.0363
      7 CAS         2.1669   43.0508    4.1096 C.3         1 MS8       0.1229
      8 CAJ         1.7972   44.3086    4.9773 C.3         1 MS8       0.0101
      9 CAN         3.6121   42.9774    3.7500 C.2         1 MS8       0.0769
     10 OAC         4.0020   42.2254    2.6941 O.co2       1 MS8      -0.5451
     11 OAE         4.5617   43.7547    4.3198 O.co2       1 MS8      -0.5451
     12 OAL         1.4592   43.2354    2.8680 O.3         1 MS8      -0.3631
     13 CAR         0.4641   44.2479    3.0319 C.3         1 MS8       0.0848
     14 CAQ         1.1394   45.2655    3.9724 C.3         1 MS8       0.0868
     15 CAH         0.0598   44.8583    1.6690 C.3         1 MS8      -0.0222
     16 CAP         1.2076   45.7003    1.0640 C.3         1 MS8      -0.0270
     17 CAG         1.7275   46.7190    2.1089 C.3         1 MS8       0.0482
     18 OAK         2.1608   46.0394    3.3029 O.3         1 MS8      -0.3740
     19 H1          2.8170   40.1243    3.8299 H           1 MS8       0.1024
     20 H2          1.6676   41.1429    2.0558 H           1 MS8       0.2010
     21 H3          0.1853   40.8241    2.7425 H           1 MS8       0.2010
     22 H4          1.1400   39.5733    2.1898 H           1 MS8       0.2010
     23 H5          2.2348   41.5930    5.7148 H           1 MS8       0.0359
     24 H6          0.6276   41.8577    5.0450 H           1 MS8       0.0359
     25 H7          2.6410   44.7849    5.4840 H           1 MS8       0.0311
     26 H8          1.0550   44.0646    5.7461 H           1 MS8       0.0311
     27 H9         -0.4279   43.8191    3.5044 H           1 MS8       0.0620
     28 H10         0.4096   45.9269    4.4542 H           1 MS8       0.0622
     29 H11        -0.8191   45.4932    1.8121 H           1 MS8       0.0292
     30 H12        -0.2108   44.0578    0.9766 H           1 MS8       0.0292
     31 H13         0.8525   46.2185    0.1707 H           1 MS8       0.0288
     32 H14         2.0281   45.0412    0.7667 H           1 MS8       0.0288
     33 H15         0.9527   47.4524    2.3496 H           1 MS8       0.0560
     34 H16         2.5846   47.2544    1.6940 H           1 MS8       0.0560
@<TRIPOS>BOND
     1     1     2  ar
     2     2     3  ar
     3     2     4   1
     4     4     5   1
     5     4     6   1
     6     6     7   1
     7     7     8   1
     8     7     9   1
     9     7    12   1
    10     8    14   1
    11     9    10  ar
    12     9    11  ar
    13    12    13   1
    14    13    14   1
    15    13    15   1
    16    14    18   1
    17    15    16   1
    18    16    17   1
    19    17    18   1
    20     4    19   1
    21     5    20   1
    22     5    21   1
    23     5    22   1
    24     6    23   1
    25     6    24   1
    26     8    25   1
    27     8    26   1
    28    13    27   1
    29    14    28   1
    30    15    29   1
    31    15    30   1
    32    16    31   1
    33    16    32   1
    34    17    33   1
    35    17    34   1
@<TRIPOS>SUBSTRUCTURE
     1  MS8      2

