@<TRIPOS>MOLECULE
3gbb_ligand_024
    34    35
SMALL
GAST_HUCK
****
This file was generated by PARSER (from files_GN.cpp)

@<TRIPOS>ATOM
      1 O           2.3756   47.0919    5.6282 O.co2       1 MS8      -0.5643
      2 C           1.2183   46.6159    5.0632 C.2         1 MS8       0.0844
      3 OXT         0.4122   45.8660    5.8252 O.co2       1 MS8      -0.5643
      4 CA          0.9334   46.8742    3.6449 C.3         1 MS8       0.0305
      5 N           0.9871   48.3415    3.4240 N.4         1 MS8       0.2327
      6 CB          1.8866   46.1175    2.6771 C.3         1 MS8       0.0363
      7 CAS         1.5854   44.5909    2.3649 C.3         1 MS8       0.1229
      8 CAJ         0.7693   43.7715    3.4129 C.3         1 MS8       0.0101
      9 CAN         0.9671   44.4436    1.0401 C.2         1 MS8       0.0769
     10 OAC         0.0271   45.3384    0.5952 O.co2       1 MS8      -0.5451
     11 OAE         1.0351   43.2691    0.3685 O.co2       1 MS8      -0.5451
     12 OAL         2.8404   43.8820    2.3790 O.3         1 MS8      -0.3631
     13 CAR         3.1269   43.4842    3.7320 C.3         1 MS8       0.0848
     14 CAQ         1.7819   43.4250    4.4959 C.3         1 MS8       0.0868
     15 CAH         3.8403   42.1125    3.7350 C.3         1 MS8      -0.0222
     16 CAP         3.9216   41.5119    5.1650 C.3         1 MS8      -0.0270
     17 CAG         2.5919   41.6832    5.9554 C.3         1 MS8       0.0482
     18 OAK         1.5021   42.1737    5.1469 O.3         1 MS8      -0.3740
     19 H1         -0.0943   46.5919    3.4233 H           1 MS8       0.1024
     20 H2          0.5931   48.5439    2.5068 H           1 MS8       0.2010
     21 H3          1.9464   48.6767    3.4534 H           1 MS8       0.2010
     22 H4          0.4402   48.8067    4.1435 H           1 MS8       0.2010
     23 H5          2.9095   46.2161    3.0706 H           1 MS8       0.0359
     24 H6          1.9195   46.6574    1.7227 H           1 MS8       0.0359
     25 H7          0.4248   42.8274    2.9651 H           1 MS8       0.0311
     26 H8         -0.1142   44.2896    3.7888 H           1 MS8       0.0311
     27 H9          3.7967   44.2214    4.1996 H           1 MS8       0.0620
     28 H10         1.7633   44.2293    5.2713 H           1 MS8       0.0622
     29 H11         4.8461   42.2348    3.3265 H           1 MS8       0.0292
     30 H12         3.2935   41.4160    3.0894 H           1 MS8       0.0292
     31 H13         4.7359   42.0029    5.7093 H           1 MS8       0.0288
     32 H14         4.1804   40.4505    5.0856 H           1 MS8       0.0288
     33 H15         2.7447   42.3593    6.8001 H           1 MS8       0.0560
     34 H16         2.2825   40.7220    6.3635 H           1 MS8       0.0560
@<TRIPOS>BOND
     1     1     2  ar
     2     2     3  ar
     3     2     4   1
     4     4     5   1
     5     4     6   1
     6     6     7   1
     7     7     8   1
     8     7     9   1
     9     7    12   1
    10     8    14   1
    11     9    10  ar
    12     9    11  ar
    13    12    13   1
    14    13    14   1
    15    13    15   1
    16    14    18   1
    17    15    16   1
    18    16    17   1
    19    17    18   1
    20     4    19   1
    21     5    20   1
    22     5    21   1
    23     5    22   1
    24     6    23   1
    25     6    24   1
    26     8    25   1
    27     8    26   1
    28    13    27   1
    29    14    28   1
    30    15    29   1
    31    15    30   1
    32    16    31   1
    33    16    32   1
    34    17    33   1
    35    17    34   1
@<TRIPOS>SUBSTRUCTURE
     1  MS8      2

