@<TRIPOS>MOLECULE
3gbb_ligand_057
    34    35
SMALL
GAST_HUCK
****
This file was generated by PARSER (from files_GN.cpp)

@<TRIPOS>ATOM
      1 O           5.1238   43.1291    7.0147 O.co2       1 MS8      -0.5643
      2 C           4.3180   42.1148    6.6375 C.2         1 MS8       0.0844
      3 OXT         4.8660   40.8768    6.6180 O.co2       1 MS8      -0.5643
      4 CA          3.0188   42.4119    5.9970 C.3         1 MS8       0.0305
      5 N           2.0674   41.3035    6.2314 N.4         1 MS8       0.2327
      6 CB          2.4065   43.7862    6.4444 C.3         1 MS8       0.0363
      7 CAS         1.7733   44.6912    5.3306 C.3         1 MS8       0.1229
      8 CAJ         0.5786   44.0600    4.5511 C.3         1 MS8       0.0101
      9 CAN         1.3607   46.0026    5.9186 C.2         1 MS8       0.0769
     10 OAC         2.1529   47.1040    5.8263 O.co2       1 MS8      -0.5451
     11 OAE         0.2558   46.1025    6.6943 O.co2       1 MS8      -0.5451
     12 OAL         2.8009   44.9676    4.3540 O.3         1 MS8      -0.3631
     13 CAR         2.3679   44.5061    3.0687 C.3         1 MS8       0.0848
     14 CAQ         0.8241   44.5131    3.1127 C.3         1 MS8       0.0868
     15 CAH         2.9523   45.3608    1.9201 C.3         1 MS8      -0.0222
     16 CAP         2.2356   46.7238    1.7844 C.3         1 MS8      -0.0270
     17 CAG         0.7040   46.5082    1.7563 C.3         1 MS8       0.0482
     18 OAK         0.2475   45.8265    2.9329 O.3         1 MS8      -0.3740
     19 H1          3.2186   42.4311    4.9260 H           1 MS8       0.1024
     20 H2          1.1911   41.4761    5.7374 H           1 MS8       0.2010
     21 H3          1.8711   41.2072    7.2294 H           1 MS8       0.2010
     22 H4          2.4666   40.4272    5.8864 H           1 MS8       0.2010
     23 H5          3.1850   44.3918    6.9275 H           1 MS8       0.0359
     24 H6          1.6565   43.6070    7.2114 H           1 MS8       0.0359
     25 H7         -0.4053   44.3828    4.9064 H           1 MS8       0.0311
     26 H8          0.6050   42.9737    4.5692 H           1 MS8       0.0311
     27 H9          2.7296   43.4817    2.9333 H           1 MS8       0.0620
     28 H10         0.3994   43.8126    2.3901 H           1 MS8       0.0622
     29 H11         2.8277   44.8146    0.9847 H           1 MS8       0.0292
     30 H12         4.0234   45.5160    2.0763 H           1 MS8       0.0292
     31 H13         2.5566   47.2169    0.8621 H           1 MS8       0.0288
     32 H14         2.4890   47.3687    2.6285 H           1 MS8       0.0288
     33 H15         0.4101   45.9495    0.8591 H           1 MS8       0.0560
     34 H16         0.2120   47.4800    1.7391 H           1 MS8       0.0560
@<TRIPOS>BOND
     1     1     2  ar
     2     2     3  ar
     3     2     4   1
     4     4     5   1
     5     4     6   1
     6     6     7   1
     7     7     8   1
     8     7     9   1
     9     7    12   1
    10     8    14   1
    11     9    10  ar
    12     9    11  ar
    13    12    13   1
    14    13    14   1
    15    13    15   1
    16    14    18   1
    17    15    16   1
    18    16    17   1
    19    17    18   1
    20     4    19   1
    21     5    20   1
    22     5    21   1
    23     5    22   1
    24     6    23   1
    25     6    24   1
    26     8    25   1
    27     8    26   1
    28    13    27   1
    29    14    28   1
    30    15    29   1
    31    15    30   1
    32    16    31   1
    33    16    32   1
    34    17    33   1
    35    17    34   1
@<TRIPOS>SUBSTRUCTURE
     1  MS8      2

