@<TRIPOS>MOLECULE
3gbb_ligand_016
    34    35
SMALL
GAST_HUCK
****
This file was generated by PARSER (from files_GN.cpp)

@<TRIPOS>ATOM
      1 O          -0.4725   44.9552   -0.1203 O.co2       1 MS8      -0.5643
      2 C          -0.6868   43.6096   -0.2319 C.2         1 MS8       0.0844
      3 OXT        -1.4568   43.3598   -1.3055 O.co2       1 MS8      -0.5643
      4 CA         -0.8285   42.8027    1.0118 C.3         1 MS8       0.0305
      5 N          -1.7369   41.6745    0.7489 N.4         1 MS8       0.2327
      6 CB          0.4935   42.2055    1.6228 C.3         1 MS8       0.0363
      7 CAS         1.4694   43.0263    2.5548 C.3         1 MS8       0.1229
      8 CAJ         0.8292   44.1242    3.4584 C.3         1 MS8       0.0101
      9 CAN         2.2681   42.0580    3.3556 C.2         1 MS8       0.0769
     10 OAC         3.2287   41.2889    2.7835 O.co2       1 MS8      -0.5451
     11 OAE         1.9939   41.7930    4.6688 O.co2       1 MS8      -0.5451
     12 OAL         2.4459   43.7521    1.7804 O.3         1 MS8      -0.3631
     13 CAR         1.9743   45.0805    1.5634 C.3         1 MS8       0.0848
     14 CAQ         0.8788   45.4072    2.6282 C.3         1 MS8       0.0868
     15 CAH         3.1363   46.0974    1.6113 C.3         1 MS8      -0.0222
     16 CAP         2.5573   47.5315    1.5811 C.3         1 MS8      -0.0270
     17 CAG         1.5109   47.7557    2.7204 C.3         1 MS8       0.0482
     18 OAK         1.1954   46.5555    3.4550 O.3         1 MS8      -0.3740
     19 H1         -1.3331   43.4098    1.7637 H           1 MS8       0.1024
     20 H2         -1.9882   41.2292    1.6324 H           1 MS8       0.2010
     21 H3         -1.2893   40.9941    0.1370 H           1 MS8       0.2010
     22 H4         -2.5802   42.0211    0.3059 H           1 MS8       0.2010
     23 H5          1.0795   41.7800    0.8033 H           1 MS8       0.0359
     24 H6          0.1755   41.3409    2.2179 H           1 MS8       0.0359
     25 H7          1.4292   44.2868    4.3556 H           1 MS8       0.0311
     26 H8         -0.1816   43.8693    3.7708 H           1 MS8       0.0311
     27 H9          1.5705   45.1288    0.5501 H           1 MS8       0.0620
     28 H10        -0.0942   45.5837    2.1587 H           1 MS8       0.0622
     29 H11         3.8137   45.9399    0.7596 H           1 MS8       0.0292
     30 H12         3.7023   45.9473    2.5372 H           1 MS8       0.0292
     31 H13         2.0766   47.6882    0.6105 H           1 MS8       0.0288
     32 H14         3.3616   48.2658    1.6533 H           1 MS8       0.0288
     33 H15         0.5941   48.1818    2.3088 H           1 MS8       0.0560
     34 H16         1.9129   48.4675    3.4400 H           1 MS8       0.0560
@<TRIPOS>BOND
     1     1     2  ar
     2     2     3  ar
     3     2     4   1
     4     4     5   1
     5     4     6   1
     6     6     7   1
     7     7     8   1
     8     7     9   1
     9     7    12   1
    10     8    14   1
    11     9    10  ar
    12     9    11  ar
    13    12    13   1
    14    13    14   1
    15    13    15   1
    16    14    18   1
    17    15    16   1
    18    16    17   1
    19    17    18   1
    20     4    19   1
    21     5    20   1
    22     5    21   1
    23     5    22   1
    24     6    23   1
    25     6    24   1
    26     8    25   1
    27     8    26   1
    28    13    27   1
    29    14    28   1
    30    15    29   1
    31    15    30   1
    32    16    31   1
    33    16    32   1
    34    17    33   1
    35    17    34   1
@<TRIPOS>SUBSTRUCTURE
     1  MS8      2

