@<TRIPOS>MOLECULE
3gbb_ligand_073
    34    35
SMALL
GAST_HUCK
****
This file was generated by PARSER (from files_GN.cpp)

@<TRIPOS>ATOM
      1 O           5.2158   39.0000    2.6929 O.co2       1 MS8      -0.5643
      2 C           3.9737   38.9914    2.1470 C.2         1 MS8       0.0844
      3 OXT         3.8050   38.3395    0.9733 O.co2       1 MS8      -0.5643
      4 CA          2.8242   39.5839    2.8616 C.3         1 MS8       0.0305
      5 N           2.3557   38.5941    3.8324 N.4         1 MS8       0.2327
      6 CB          3.1610   40.9283    3.5873 C.3         1 MS8       0.0363
      7 CAS         2.0269   42.0116    3.6416 C.3         1 MS8       0.1229
      8 CAJ         1.5767   42.4841    2.2175 C.3         1 MS8       0.0101
      9 CAN         0.8998   41.5198    4.4783 C.2         1 MS8       0.0769
     10 OAC         0.9032   41.6043    5.8341 O.co2       1 MS8      -0.5451
     11 OAE        -0.0921   40.8030    3.9269 O.co2       1 MS8      -0.5451
     12 OAL         2.4932   43.2049    4.3192 O.3         1 MS8      -0.3631
     13 CAR         2.4101   44.3295    3.4331 C.3         1 MS8       0.0848
     14 CAQ         1.3140   43.9808    2.4003 C.3         1 MS8       0.0868
     15 CAH         2.1188   45.6467    4.1964 C.3         1 MS8      -0.0222
     16 CAP         0.6417   45.7476    4.6453 C.3         1 MS8      -0.0270
     17 CAG        -0.2963   45.4663    3.4480 C.3         1 MS8       0.0482
     18 OAK        -0.0303   44.1660    2.8984 O.3         1 MS8      -0.3740
     19 H1          2.0152   39.7376    2.1463 H           1 MS8       0.1024
     20 H2          1.5305   38.9583    4.3153 H           1 MS8       0.2010
     21 H3          3.0899   38.4114    4.5217 H           1 MS8       0.2010
     22 H4          2.1142   37.7288    3.3568 H           1 MS8       0.2010
     23 H5          4.0471   41.3502    3.1127 H           1 MS8       0.0359
     24 H6          3.4447   40.6981    4.6165 H           1 MS8       0.0359
     25 H7          0.6992   41.9540    1.8384 H           1 MS8       0.0311
     26 H8          2.3735   42.3528    1.4789 H           1 MS8       0.0311
     27 H9          3.3749   44.4289    2.9233 H           1 MS8       0.0620
     28 H10         1.4523   44.5272    1.4614 H           1 MS8       0.0622
     29 H11         2.3465   46.4924    3.5415 H           1 MS8       0.0292
     30 H12         2.7735   45.7142    5.0696 H           1 MS8       0.0292
     31 H13         0.4425   46.7437    5.0457 H           1 MS8       0.0288
     32 H14         0.4487   45.0157    5.4359 H           1 MS8       0.0288
     33 H15        -0.1861   46.2364    2.6783 H           1 MS8       0.0560
     34 H16        -1.3326   45.4789    3.7917 H           1 MS8       0.0560
@<TRIPOS>BOND
     1     1     2  ar
     2     2     3  ar
     3     2     4   1
     4     4     5   1
     5     4     6   1
     6     6     7   1
     7     7     8   1
     8     7     9   1
     9     7    12   1
    10     8    14   1
    11     9    10  ar
    12     9    11  ar
    13    12    13   1
    14    13    14   1
    15    13    15   1
    16    14    18   1
    17    15    16   1
    18    16    17   1
    19    17    18   1
    20     4    19   1
    21     5    20   1
    22     5    21   1
    23     5    22   1
    24     6    23   1
    25     6    24   1
    26     8    25   1
    27     8    26   1
    28    13    27   1
    29    14    28   1
    30    15    29   1
    31    15    30   1
    32    16    31   1
    33    16    32   1
    34    17    33   1
    35    17    34   1
@<TRIPOS>SUBSTRUCTURE
     1  MS8      2

