@<TRIPOS>MOLECULE
3gbb_ligand_063
    34    35
SMALL
GAST_HUCK
****
This file was generated by PARSER (from files_GN.cpp)

@<TRIPOS>ATOM
      1 O           1.5459   40.7184    4.0069 O.co2       1 MS8      -0.5643
      2 C           2.1717   41.1021    2.8640 C.2         1 MS8       0.0844
      3 OXT         3.4553   40.7337    2.6846 O.co2       1 MS8      -0.5643
      4 CA          1.4956   41.9920    1.8932 C.3         1 MS8       0.0305
      5 N           0.4606   41.1770    1.2294 N.4         1 MS8       0.2327
      6 CB          0.8411   43.2783    2.4754 C.3         1 MS8       0.0363
      7 CAS         1.4261   43.8964    3.7939 C.3         1 MS8       0.1229
      8 CAJ         2.7758   44.6693    3.6288 C.3         1 MS8       0.0101
      9 CAN         0.3908   44.8115    4.3700 C.2         1 MS8       0.0769
     10 OAC         0.1455   44.8462    5.7067 O.co2       1 MS8      -0.5451
     11 OAE        -0.3473   45.6183    3.5727 O.co2       1 MS8      -0.5451
     12 OAL         1.6542   42.7917    4.6965 O.3         1 MS8      -0.3631
     13 CAR         2.9747   42.8971    5.2553 C.3         1 MS8       0.0848
     14 CAQ         3.8217   43.7364    4.2645 C.3         1 MS8       0.0868
     15 CAH         2.9137   43.5050    6.6831 C.3         1 MS8      -0.0222
     16 CAP         4.2916   43.9874    7.1686 C.3         1 MS8      -0.0270
     17 CAG         4.8537   44.9891    6.1370 C.3         1 MS8       0.0482
     18 OAK         4.9919   44.3842    4.8342 O.3         1 MS8      -0.3740
     19 H1          2.2162   42.2857    1.1241 H           1 MS8       0.1024
     20 H2          0.0555   41.7133    0.4579 H           1 MS8       0.2010
     21 H3         -0.2817   40.9368    1.9056 H           1 MS8       0.2010
     22 H4          0.8734   40.3126    0.8635 H           1 MS8       0.2010
     23 H5         -0.2136   43.0536    2.6564 H           1 MS8       0.0359
     24 H6          0.8822   44.0423    1.6909 H           1 MS8       0.0359
     25 H7          2.7786   45.6233    4.1693 H           1 MS8       0.0311
     26 H8          3.0150   44.8749    2.5808 H           1 MS8       0.0311
     27 H9          3.3975   41.8871    5.3224 H           1 MS8       0.0620
     28 H10         4.2009   43.0648    3.4811 H           1 MS8       0.0622
     29 H11         2.5266   42.7378    7.3621 H           1 MS8       0.0292
     30 H12         2.2268   44.3582    6.7031 H           1 MS8       0.0292
     31 H13         4.9760   43.1414    7.2684 H           1 MS8       0.0288
     32 H14         4.1838   44.4755    8.1399 H           1 MS8       0.0288
     33 H15         5.8386   45.3272    6.4553 H           1 MS8       0.0560
     34 H16         4.2008   45.8625    6.0813 H           1 MS8       0.0560
@<TRIPOS>BOND
     1     1     2  ar
     2     2     3  ar
     3     2     4   1
     4     4     5   1
     5     4     6   1
     6     6     7   1
     7     7     8   1
     8     7     9   1
     9     7    12   1
    10     8    14   1
    11     9    10  ar
    12     9    11  ar
    13    12    13   1
    14    13    14   1
    15    13    15   1
    16    14    18   1
    17    15    16   1
    18    16    17   1
    19    17    18   1
    20     4    19   1
    21     5    20   1
    22     5    21   1
    23     5    22   1
    24     6    23   1
    25     6    24   1
    26     8    25   1
    27     8    26   1
    28    13    27   1
    29    14    28   1
    30    15    29   1
    31    15    30   1
    32    16    31   1
    33    16    32   1
    34    17    33   1
    35    17    34   1
@<TRIPOS>SUBSTRUCTURE
     1  MS8      2

