@<TRIPOS>MOLECULE
3gbb_ligand_028
    34    35
SMALL
GAST_HUCK
****
This file was generated by PARSER (from files_GN.cpp)

@<TRIPOS>ATOM
      1 O           1.0142   37.9347    2.7453 O.co2       1 MS8      -0.5643
      2 C           1.3813   38.3363    3.9977 C.2         1 MS8       0.0844
      3 OXT         0.6652   37.8614    5.0416 O.co2       1 MS8      -0.5643
      4 CA          2.4433   39.3475    4.2113 C.3         1 MS8       0.0305
      5 N           3.7080   38.6018    4.2851 N.4         1 MS8       0.2327
      6 CB          2.5444   40.4696    3.1271 C.3         1 MS8       0.0363
      7 CAS         2.7557   41.9435    3.6399 C.3         1 MS8       0.1229
      8 CAJ         1.4601   42.5595    4.2504 C.3         1 MS8       0.0101
      9 CAN         3.9120   42.1030    4.5627 C.2         1 MS8       0.0769
     10 OAC         4.8077   43.1120    4.3741 O.co2       1 MS8      -0.5451
     11 OAE         3.9036   41.5199    5.7912 O.co2       1 MS8      -0.5451
     12 OAL         3.0038   42.7694    2.4839 O.3         1 MS8      -0.3631
     13 CAR         1.7720   43.2790    1.9658 C.3         1 MS8       0.0848
     14 CAQ         0.6660   43.0334    3.0256 C.3         1 MS8       0.0868
     15 CAH         1.9021   44.7899    1.6412 C.3         1 MS8      -0.0222
     16 CAP         0.5227   45.3761    1.2436 C.3         1 MS8      -0.0270
     17 CAG        -0.6281   44.8628    2.1600 C.3         1 MS8       0.0482
     18 OAK        -0.1405   44.1916    3.3402 O.3         1 MS8      -0.3740
     19 H1          2.2612   39.8134    5.1793 H           1 MS8       0.1024
     20 H2          4.4926   39.2442    4.3882 H           1 MS8       0.2010
     21 H3          3.8259   38.0467    3.4319 H           1 MS8       0.2010
     22 H4          3.6789   37.9754    5.0886 H           1 MS8       0.2010
     23 H5          1.6389   40.4526    2.5061 H           1 MS8       0.0359
     24 H6          3.3681   40.2325    2.4465 H           1 MS8       0.0359
     25 H7          1.7014   43.4269    4.8792 H           1 MS8       0.0311
     26 H8          0.8800   41.8509    4.8489 H           1 MS8       0.0311
     27 H9          1.5392   42.7401    1.0459 H           1 MS8       0.0620
     28 H10         0.0098   42.2294    2.6810 H           1 MS8       0.0622
     29 H11         2.6186   44.9436    0.8353 H           1 MS8       0.0292
     30 H12         2.2764   45.3150    2.5289 H           1 MS8       0.0292
     31 H13         0.3056   45.0980    0.2066 H           1 MS8       0.0288
     32 H14         0.5803   46.4635    1.2923 H           1 MS8       0.0288
     33 H15        -1.2842   44.1811    1.6033 H           1 MS8       0.0560
     34 H16        -1.2373   45.7052    2.4871 H           1 MS8       0.0560
@<TRIPOS>BOND
     1     1     2  ar
     2     2     3  ar
     3     2     4   1
     4     4     5   1
     5     4     6   1
     6     6     7   1
     7     7     8   1
     8     7     9   1
     9     7    12   1
    10     8    14   1
    11     9    10  ar
    12     9    11  ar
    13    12    13   1
    14    13    14   1
    15    13    15   1
    16    14    18   1
    17    15    16   1
    18    16    17   1
    19    17    18   1
    20     4    19   1
    21     5    20   1
    22     5    21   1
    23     5    22   1
    24     6    23   1
    25     6    24   1
    26     8    25   1
    27     8    26   1
    28    13    27   1
    29    14    28   1
    30    15    29   1
    31    15    30   1
    32    16    31   1
    33    16    32   1
    34    17    33   1
    35    17    34   1
@<TRIPOS>SUBSTRUCTURE
     1  MS8      2

