@<TRIPOS>MOLECULE
3gbb_ligand_034
    34    35
SMALL
GAST_HUCK
****
This file was generated by PARSER (from files_GN.cpp)

@<TRIPOS>ATOM
      1 O           0.0617   45.6674    0.7067 O.co2       1 MS8      -0.5643
      2 C           0.1771   46.1004    1.9827 C.2         1 MS8       0.0844
      3 OXT        -0.8752   45.9371    2.8168 O.co2       1 MS8      -0.5643
      4 CA          1.4174   46.7568    2.4445 C.3         1 MS8       0.0305
      5 N           1.0898   48.1067    2.9313 N.4         1 MS8       0.2327
      6 CB          2.1810   45.9248    3.5233 C.3         1 MS8       0.0363
      7 CAS         3.1636   44.7755    3.0786 C.3         1 MS8       0.1229
      8 CAJ         2.5045   43.4602    2.5822 C.3         1 MS8       0.0101
      9 CAN         4.2057   45.2369    2.1163 C.2         1 MS8       0.0769
     10 OAC         3.8740   45.7853    0.9274 O.co2       1 MS8      -0.5451
     11 OAE         5.4833   44.8033    2.2197 O.co2       1 MS8      -0.5451
     12 OAL         3.8578   44.3526    4.2685 O.3         1 MS8      -0.3631
     13 CAR         3.1568   43.2706    4.8959 C.3         1 MS8       0.0848
     14 CAQ         2.1721   42.6734    3.8587 C.3         1 MS8       0.0868
     15 CAH         4.1786   42.2209    5.3999 C.3         1 MS8      -0.0222
     16 CAP         3.4703   40.9182    5.8478 C.3         1 MS8      -0.0270
     17 CAG         2.3553   40.4695    4.8540 C.3         1 MS8       0.0482
     18 OAK         2.3314   41.2520    3.6429 O.3         1 MS8      -0.3740
     19 H1          2.0601   46.9264    1.5870 H           1 MS8       0.1024
     20 H2          1.9503   48.5984    3.1714 H           1 MS8       0.2010
     21 H3          0.4811   48.0693    3.7474 H           1 MS8       0.2010
     22 H4          0.6288   48.6219    2.1803 H           1 MS8       0.2010
     23 H5          1.4432   45.5066    4.2133 H           1 MS8       0.0359
     24 H6          2.7642   46.6293    4.1201 H           1 MS8       0.0359
     25 H7          3.2203   42.8773    1.9941 H           1 MS8       0.0311
     26 H8          1.6212   43.6284    1.9685 H           1 MS8       0.0311
     27 H9          2.5996   43.6611    5.7540 H           1 MS8       0.0620
     28 H10         1.1382   42.8778    4.1586 H           1 MS8       0.0622
     29 H11         4.7581   42.6309    6.2317 H           1 MS8       0.0292
     30 H12         4.8756   41.9818    4.5907 H           1 MS8       0.0292
     31 H13         3.0284   41.0772    6.8359 H           1 MS8       0.0288
     32 H14         4.2255   40.1332    5.9455 H           1 MS8       0.0288
     33 H15         1.3752   40.5222    5.3378 H           1 MS8       0.0560
     34 H16         2.5195   39.4282    4.5677 H           1 MS8       0.0560
@<TRIPOS>BOND
     1     1     2  ar
     2     2     3  ar
     3     2     4   1
     4     4     5   1
     5     4     6   1
     6     6     7   1
     7     7     8   1
     8     7     9   1
     9     7    12   1
    10     8    14   1
    11     9    10  ar
    12     9    11  ar
    13    12    13   1
    14    13    14   1
    15    13    15   1
    16    14    18   1
    17    15    16   1
    18    16    17   1
    19    17    18   1
    20     4    19   1
    21     5    20   1
    22     5    21   1
    23     5    22   1
    24     6    23   1
    25     6    24   1
    26     8    25   1
    27     8    26   1
    28    13    27   1
    29    14    28   1
    30    15    29   1
    31    15    30   1
    32    16    31   1
    33    16    32   1
    34    17    33   1
    35    17    34   1
@<TRIPOS>SUBSTRUCTURE
     1  MS8      2

