@<TRIPOS>MOLECULE
3gbb_ligand_015
    34    35
SMALL
GAST_HUCK
****
This file was generated by PARSER (from files_GN.cpp)

@<TRIPOS>ATOM
      1 O           0.2524   46.3217    6.8588 O.co2       1 MS8      -0.5643
      2 C           1.3396   46.7219    6.1616 C.2         1 MS8       0.0844
      3 OXT         1.5273   48.0477    5.9905 O.co2       1 MS8      -0.5643
      4 CA          2.2598   45.7383    5.5493 C.3         1 MS8       0.0305
      5 N           3.2828   45.3970    6.5513 N.4         1 MS8       0.2327
      6 CB          1.5215   44.4591    5.0171 C.3         1 MS8       0.0363
      7 CAS         1.8624   43.9491    3.5723 C.3         1 MS8       0.1229
      8 CAJ         1.7248   45.0173    2.4464 C.3         1 MS8       0.0101
      9 CAN         3.1710   43.2473    3.5068 C.2         1 MS8       0.0769
     10 OAC         3.3986   42.3314    2.5402 O.co2       1 MS8      -0.5451
     11 OAE         4.2772   43.7638    4.1039 O.co2       1 MS8      -0.5451
     12 OAL         0.8455   42.9659    3.2862 O.3         1 MS8      -0.3631
     13 CAR        -0.1029   43.4755    2.3324 C.3         1 MS8       0.0848
     14 CAQ         0.2330   44.9657    2.1014 C.3         1 MS8       0.0868
     15 CAH        -0.0286   42.6014    1.0516 C.3         1 MS8      -0.0222
     16 CAP        -0.6564   43.3175   -0.1643 C.3         1 MS8      -0.0270
     17 CAG         0.0216   44.6942   -0.3387 C.3         1 MS8       0.0482
     18 OAK        -0.1698   45.5126    0.8251 O.3         1 MS8      -0.3740
     19 H1          2.7936   46.2322    4.7381 H           1 MS8       0.1024
     20 H2          3.9501   44.7352    6.1501 H           1 MS8       0.2010
     21 H3          2.8406   44.9721    7.3659 H           1 MS8       0.2010
     22 H4          3.7848   46.2410    6.8418 H           1 MS8       0.2010
     23 H5          0.4414   44.6240    5.0508 H           1 MS8       0.0359
     24 H6          1.7038   43.6338    5.7133 H           1 MS8       0.0359
     25 H7          2.3157   44.7517    1.5655 H           1 MS8       0.0311
     26 H8          2.0188   46.0199    2.7569 H           1 MS8       0.0311
     27 H9         -1.1134   43.4083    2.7379 H           1 MS8       0.0620
     28 H10        -0.3000   45.5617    2.8496 H           1 MS8       0.0622
     29 H11        -0.5435   41.6520    1.2254 H           1 MS8       0.0292
     30 H12         1.0170   42.3767    0.8199 H           1 MS8       0.0292
     31 H13        -1.7301   43.4562   -0.0040 H           1 MS8       0.0288
     32 H14        -0.5141   42.7138   -1.0644 H           1 MS8       0.0288
     33 H15        -0.4188   45.2092   -1.1914 H           1 MS8       0.0560
     34 H16         1.0853   44.5758   -0.5354 H           1 MS8       0.0560
@<TRIPOS>BOND
     1     1     2  ar
     2     2     3  ar
     3     2     4   1
     4     4     5   1
     5     4     6   1
     6     6     7   1
     7     7     8   1
     8     7     9   1
     9     7    12   1
    10     8    14   1
    11     9    10  ar
    12     9    11  ar
    13    12    13   1
    14    13    14   1
    15    13    15   1
    16    14    18   1
    17    15    16   1
    18    16    17   1
    19    17    18   1
    20     4    19   1
    21     5    20   1
    22     5    21   1
    23     5    22   1
    24     6    23   1
    25     6    24   1
    26     8    25   1
    27     8    26   1
    28    13    27   1
    29    14    28   1
    30    15    29   1
    31    15    30   1
    32    16    31   1
    33    16    32   1
    34    17    33   1
    35    17    34   1
@<TRIPOS>SUBSTRUCTURE
     1  MS8      2

