@<TRIPOS>MOLECULE
3gbb_ligand_050
    34    35
SMALL
GAST_HUCK
****
This file was generated by PARSER (from files_GN.cpp)

@<TRIPOS>ATOM
      1 O           0.0629   45.6574    5.7376 O.co2       1 MS8      -0.5643
      2 C           0.8607   46.1714    4.7751 C.2         1 MS8       0.0844
      3 OXT         0.2965   46.5888    3.6149 O.co2       1 MS8      -0.5643
      4 CA          2.3263   46.1031    4.9128 C.3         1 MS8       0.0305
      5 N           2.7243   46.0241    6.3346 N.4         1 MS8       0.2327
      6 CB          3.0121   44.9805    4.0537 C.3         1 MS8       0.0363
      7 CAS         2.1993   43.7036    3.6144 C.3         1 MS8       0.1229
      8 CAJ         1.4134   43.0073    4.7714 C.3         1 MS8       0.0101
      9 CAN         1.3631   44.0010    2.4198 C.2         1 MS8       0.0769
     10 OAC         1.9358   44.0743    1.1890 O.co2       1 MS8      -0.5451
     11 OAE         0.0243   44.1814    2.4837 O.co2       1 MS8      -0.5451
     12 OAL         3.1820   42.7324    3.1708 O.3         1 MS8      -0.3631
     13 CAR         3.0832   41.5213    3.9362 C.3         1 MS8       0.0848
     14 CAQ         2.3706   41.9116    5.2485 C.3         1 MS8       0.0868
     15 CAH         2.3309   40.4291    3.1174 C.3         1 MS8      -0.0222
     16 CAP         1.8313   39.2797    4.0201 C.3         1 MS8      -0.0270
     17 CAG         1.0124   39.8604    5.2002 C.3         1 MS8       0.0482
     18 OAK         1.7818   40.8043    5.9731 O.3         1 MS8      -0.3740
     19 H1          2.7006   47.0712    4.5714 H           1 MS8       0.1024
     20 H2          3.7170   46.2593    6.4244 H           1 MS8       0.2010
     21 H3          2.5770   45.0794    6.6902 H           1 MS8       0.2010
     22 H4          2.1771   46.6830    6.9049 H           1 MS8       0.2010
     23 H5          3.8939   44.6456    4.6089 H           1 MS8       0.0359
     24 H6          3.4025   45.4594    3.1476 H           1 MS8       0.0359
     25 H7          0.4957   42.5486    4.4074 H           1 MS8       0.0311
     26 H8          1.1284   43.6844    5.5823 H           1 MS8       0.0311
     27 H9          4.0889   41.1552    4.1681 H           1 MS8       0.0620
     28 H10         3.0989   42.3766    5.9228 H           1 MS8       0.0622
     29 H11         2.9971   40.0202    2.3559 H           1 MS8       0.0292
     30 H12         1.4701   40.8696    2.6075 H           1 MS8       0.0292
     31 H13         2.6911   38.7191    4.4035 H           1 MS8       0.0288
     32 H14         1.2089   38.5952    3.4375 H           1 MS8       0.0288
     33 H15         0.6948   39.0521    5.8606 H           1 MS8       0.0560
     34 H16         0.1068   40.3394    4.8281 H           1 MS8       0.0560
@<TRIPOS>BOND
     1     1     2  ar
     2     2     3  ar
     3     2     4   1
     4     4     5   1
     5     4     6   1
     6     6     7   1
     7     7     8   1
     8     7     9   1
     9     7    12   1
    10     8    14   1
    11     9    10  ar
    12     9    11  ar
    13    12    13   1
    14    13    14   1
    15    13    15   1
    16    14    18   1
    17    15    16   1
    18    16    17   1
    19    17    18   1
    20     4    19   1
    21     5    20   1
    22     5    21   1
    23     5    22   1
    24     6    23   1
    25     6    24   1
    26     8    25   1
    27     8    26   1
    28    13    27   1
    29    14    28   1
    30    15    29   1
    31    15    30   1
    32    16    31   1
    33    16    32   1
    34    17    33   1
    35    17    34   1
@<TRIPOS>SUBSTRUCTURE
     1  MS8      2

