@<TRIPOS>MOLECULE
3gbb_ligand_062
    34    35
SMALL
GAST_HUCK
****
This file was generated by PARSER (from files_GN.cpp)

@<TRIPOS>ATOM
      1 O           2.0414   43.2675    6.7356 O.co2       1 MS8      -0.5643
      2 C           2.2548   44.6011    6.6890 C.2         1 MS8       0.0844
      3 OXT         3.4911   45.0416    7.0142 O.co2       1 MS8      -0.5643
      4 CA          1.2269   45.4953    6.0992 C.3         1 MS8       0.0305
      5 N           1.6846   46.8942    6.0390 N.4         1 MS8       0.2327
      6 CB          0.7346   45.0036    4.6987 C.3         1 MS8       0.0363
      7 CAS         1.7537   45.0804    3.4919 C.3         1 MS8       0.1229
      8 CAJ         1.6717   43.8511    2.5189 C.3         1 MS8       0.0101
      9 CAN         1.6542   46.3592    2.7242 C.2         1 MS8       0.0769
     10 OAC         0.4897   47.0583    2.6308 O.co2       1 MS8      -0.5451
     11 OAE         2.6071   46.6878    1.8318 O.co2       1 MS8      -0.5451
     12 OAL         3.1105   45.0757    3.9970 O.3         1 MS8      -0.3631
     13 CAR         3.6996   43.8015    3.7388 C.3         1 MS8       0.0848
     14 CAQ         3.1312   43.4071    2.3666 C.3         1 MS8       0.0868
     15 CAH         5.2463   43.8706    3.7553 C.3         1 MS8      -0.0222
     16 CAP         5.8042   44.6357    2.5326 C.3         1 MS8      -0.0270
     17 CAG         5.1890   44.0848    1.2323 C.3         1 MS8       0.0482
     18 OAK         3.7486   44.1425    1.2895 O.3         1 MS8      -0.3740
     19 H1          0.3726   45.4807    6.7859 H           1 MS8       0.1024
     20 H2          0.9197   47.4928    5.7310 H           1 MS8       0.2010
     21 H3          2.4633   46.9633    5.3807 H           1 MS8       0.2010
     22 H4          1.9857   47.1946    6.9709 H           1 MS8       0.2010
     23 H5         -0.1677   45.5590    4.4539 H           1 MS8       0.0359
     24 H6          0.3933   43.9777    4.8389 H           1 MS8       0.0359
     25 H7          1.2177   44.0820    1.5547 H           1 MS8       0.0311
     26 H8          1.1037   43.0248    2.9534 H           1 MS8       0.0311
     27 H9          3.3775   43.0861    4.4994 H           1 MS8       0.0620
     28 H10         3.2125   42.3335    2.1961 H           1 MS8       0.0622
     29 H11         5.6475   42.8533    3.7449 H           1 MS8       0.0292
     30 H12         5.5835   44.3557    4.6743 H           1 MS8       0.0292
     31 H13         6.8889   44.5508    2.4833 H           1 MS8       0.0288
     32 H14         5.5509   45.6929    2.6177 H           1 MS8       0.0288
     33 H15         5.5272   43.0620    1.0569 H           1 MS8       0.0560
     34 H16         5.5283   44.7042    0.3969 H           1 MS8       0.0560
@<TRIPOS>BOND
     1     1     2  ar
     2     2     3  ar
     3     2     4   1
     4     4     5   1
     5     4     6   1
     6     6     7   1
     7     7     8   1
     8     7     9   1
     9     7    12   1
    10     8    14   1
    11     9    10  ar
    12     9    11  ar
    13    12    13   1
    14    13    14   1
    15    13    15   1
    16    14    18   1
    17    15    16   1
    18    16    17   1
    19    17    18   1
    20     4    19   1
    21     5    20   1
    22     5    21   1
    23     5    22   1
    24     6    23   1
    25     6    24   1
    26     8    25   1
    27     8    26   1
    28    13    27   1
    29    14    28   1
    30    15    29   1
    31    15    30   1
    32    16    31   1
    33    16    32   1
    34    17    33   1
    35    17    34   1
@<TRIPOS>SUBSTRUCTURE
     1  MS8      2

