@<TRIPOS>MOLECULE
3gbb_ligand_018
    34    35
SMALL
GAST_HUCK
****
This file was generated by PARSER (from files_GN.cpp)

@<TRIPOS>ATOM
      1 O           3.9500   44.9858    7.2867 O.co2       1 MS8      -0.5643
      2 C           3.1496   45.7653    6.5232 C.2         1 MS8       0.0844
      3 OXT         3.3982   47.0976    6.4549 O.co2       1 MS8      -0.5643
      4 CA          1.8835   45.2056    5.9771 C.3         1 MS8       0.0305
      5 N           0.7455   46.0296    6.4334 N.4         1 MS8       0.2327
      6 CB          1.8559   45.1013    4.4197 C.3         1 MS8       0.0363
      7 CAS         2.5780   43.8538    3.7625 C.3         1 MS8       0.1229
      8 CAJ         1.8475   43.3483    2.4663 C.3         1 MS8       0.0101
      9 CAN         4.0177   44.1861    3.5060 C.2         1 MS8       0.0769
     10 OAC         4.9968   43.8329    4.3765 O.co2       1 MS8      -0.5451
     11 OAE         4.3671   44.8084    2.3512 O.co2       1 MS8      -0.5451
     12 OAL         2.5567   42.7420    4.6943 O.3         1 MS8      -0.3631
     13 CAR         1.4789   41.8874    4.3303 C.3         1 MS8       0.0848
     14 CAQ         1.4767   41.8933    2.7858 C.3         1 MS8       0.0868
     15 CAH         1.6582   40.4650    4.9297 C.3         1 MS8      -0.0222
     16 CAP         2.7077   39.6201    4.1727 C.3         1 MS8      -0.0270
     17 CAG         2.4567   39.6906    2.6534 C.3         1 MS8       0.0482
     18 OAK         2.5050   41.0638    2.2165 O.3         1 MS8      -0.3740
     19 H1          1.7278   44.2088    6.4016 H           1 MS8       0.1024
     20 H2         -0.1239   45.5180    6.2120 H           1 MS8       0.2010
     21 H3          0.7371   46.9461    5.9455 H           1 MS8       0.2010
     22 H4          0.8177   46.1821    7.4492 H           1 MS8       0.2010
     23 H5          2.2531   46.0456    3.9984 H           1 MS8       0.0359
     24 H6          0.7880   45.0885    4.1490 H           1 MS8       0.0359
     25 H7          2.4880   43.4219    1.5819 H           1 MS8       0.0311
     26 H8          0.9423   43.9251    2.2517 H           1 MS8       0.0311
     27 H9          0.5567   42.3242    4.7129 H           1 MS8       0.0620
     28 H10         0.4924   41.6500    2.3914 H           1 MS8       0.0622
     29 H11         0.6843   39.9495    4.9003 H           1 MS8       0.0292
     30 H12         1.9360   40.5481    5.9875 H           1 MS8       0.0292
     31 H13         2.6471   38.5787    4.5057 H           1 MS8       0.0288
     32 H14         3.6978   40.0006    4.3979 H           1 MS8       0.0288
     33 H15         1.4932   39.2203    2.3948 H           1 MS8       0.0560
     34 H16         3.2382   39.1404    2.1418 H           1 MS8       0.0560
@<TRIPOS>BOND
     1     1     2  ar
     2     2     3  ar
     3     2     4   1
     4     4     5   1
     5     4     6   1
     6     6     7   1
     7     7     8   1
     8     7     9   1
     9     7    12   1
    10     8    14   1
    11     9    10  ar
    12     9    11  ar
    13    12    13   1
    14    13    14   1
    15    13    15   1
    16    14    18   1
    17    15    16   1
    18    16    17   1
    19    17    18   1
    20     4    19   1
    21     5    20   1
    22     5    21   1
    23     5    22   1
    24     6    23   1
    25     6    24   1
    26     8    25   1
    27     8    26   1
    28    13    27   1
    29    14    28   1
    30    15    29   1
    31    15    30   1
    32    16    31   1
    33    16    32   1
    34    17    33   1
    35    17    34   1
@<TRIPOS>SUBSTRUCTURE
     1  MS8      2

