@<TRIPOS>MOLECULE
3gbb_ligand_072
    34    35
SMALL
GAST_HUCK
****
This file was generated by PARSER (from files_GN.cpp)

@<TRIPOS>ATOM
      1 O          -0.3364   44.0056    4.4549 O.co2       1 MS8      -0.5643
      2 C          -0.4098   44.5009    3.2008 C.2         1 MS8       0.0844
      3 OXT        -0.8558   45.7696    3.0344 O.co2       1 MS8      -0.5643
      4 CA         -0.1269   43.6433    2.0368 C.3         1 MS8       0.0305
      5 N          -0.7129   44.2915    0.8543 N.4         1 MS8       0.2327
      6 CB          1.3902   43.3591    1.8030 C.3         1 MS8       0.0363
      7 CAS         2.4030   44.3576    2.4745 C.3         1 MS8       0.1229
      8 CAJ         2.1987   45.8279    2.0237 C.3         1 MS8       0.0101
      9 CAN         2.3161   44.2797    3.9562 C.2         1 MS8       0.0769
     10 OAC         1.9582   45.3667    4.6820 O.co2       1 MS8      -0.5451
     11 OAE         2.6741   43.1618    4.6313 O.co2       1 MS8      -0.5451
     12 OAL         3.7515   44.0781    2.0587 O.3         1 MS8      -0.3631
     13 CAR         4.0135   44.7713    0.8292 C.3         1 MS8       0.0848
     14 CAQ         3.0009   45.9448    0.7224 C.3         1 MS8       0.0868
     15 CAH         5.4822   45.2657    0.7908 C.3         1 MS8      -0.0222
     16 CAP         5.7068   46.2661   -0.3715 C.3         1 MS8      -0.0270
     17 CAG         4.5836   47.3451   -0.4530 C.3         1 MS8       0.0482
     18 OAK         3.6205   47.2460    0.6156 O.3         1 MS8      -0.3740
     19 H1         -0.6432   42.6883    2.1626 H           1 MS8       0.1024
     20 H2         -0.5359   43.7228    0.0241 H           1 MS8       0.2010
     21 H3         -0.2909   45.2180    0.7289 H           1 MS8       0.2010
     22 H4         -1.7250   44.3919    0.9844 H           1 MS8       0.2010
     23 H5          1.5767   43.3151    0.7232 H           1 MS8       0.0359
     24 H6          1.5883   42.3558    2.1898 H           1 MS8       0.0359
     25 H7          2.6166   46.5237    2.7631 H           1 MS8       0.0311
     26 H8          1.1460   46.0808    1.8772 H           1 MS8       0.0311
     27 H9          3.8537   44.0727   -0.0000 H           1 MS8       0.0620
     28 H10         2.3330   45.7896   -0.1315 H           1 MS8       0.0622
     29 H11         6.1582   44.4142    0.6865 H           1 MS8       0.0292
     30 H12         5.7126   45.7651    1.7351 H           1 MS8       0.0292
     31 H13         5.7398   45.7127   -1.3137 H           1 MS8       0.0288
     32 H14         6.6778   46.7506   -0.2371 H           1 MS8       0.0288
     33 H15         4.0628   47.2763   -1.4134 H           1 MS8       0.0560
     34 H16         5.0316   48.3405   -0.4005 H           1 MS8       0.0560
@<TRIPOS>BOND
     1     1     2  ar
     2     2     3  ar
     3     2     4   1
     4     4     5   1
     5     4     6   1
     6     6     7   1
     7     7     8   1
     8     7     9   1
     9     7    12   1
    10     8    14   1
    11     9    10  ar
    12     9    11  ar
    13    12    13   1
    14    13    14   1
    15    13    15   1
    16    14    18   1
    17    15    16   1
    18    16    17   1
    19    17    18   1
    20     4    19   1
    21     5    20   1
    22     5    21   1
    23     5    22   1
    24     6    23   1
    25     6    24   1
    26     8    25   1
    27     8    26   1
    28    13    27   1
    29    14    28   1
    30    15    29   1
    31    15    30   1
    32    16    31   1
    33    16    32   1
    34    17    33   1
    35    17    34   1
@<TRIPOS>SUBSTRUCTURE
     1  MS8      2

