@<TRIPOS>MOLECULE
3gbb_ligand_043
    34    35
SMALL
GAST_HUCK
****
This file was generated by PARSER (from files_GN.cpp)

@<TRIPOS>ATOM
      1 O           4.8692   44.4596    7.3935 O.co2       1 MS8      -0.5643
      2 C           5.2889   43.1662    7.3533 C.2         1 MS8       0.0844
      3 OXT         6.4835   42.8927    7.9375 O.co2       1 MS8      -0.5643
      4 CA          4.6681   42.1833    6.4285 C.3         1 MS8       0.0305
      5 N           4.9128   40.8241    6.9536 N.4         1 MS8       0.2327
      6 CB          3.1320   42.4007    6.1640 C.3         1 MS8       0.0363
      7 CAS         2.7482   42.9592    4.7445 C.3         1 MS8       0.1229
      8 CAJ         3.3814   44.3528    4.4224 C.3         1 MS8       0.0101
      9 CAN         3.0141   41.9259    3.7072 C.2         1 MS8       0.0769
     10 OAC         3.9357   42.1021    2.7263 O.co2       1 MS8      -0.5451
     11 OAE         2.3738   40.7303    3.7508 O.co2       1 MS8      -0.5451
     12 OAL         1.3196   43.1830    4.7555 O.3         1 MS8      -0.3631
     13 CAR         1.0289   44.5916    4.7199 C.3         1 MS8       0.0848
     14 CAQ         2.3604   45.3275    5.0167 C.3         1 MS8       0.0868
     15 CAH         0.4282   44.9595    3.3343 C.3         1 MS8      -0.0222
     16 CAP         0.5171   46.4808    3.0557 C.3         1 MS8      -0.0270
     17 CAG         1.9673   46.9826    3.2413 C.3         1 MS8       0.0482
     18 OAK         2.4444   46.7005    4.5674 O.3         1 MS8      -0.3740
     19 H1          5.2110   42.2258    5.4803 H           1 MS8       0.1024
     20 H2          4.5054   40.1288    6.3267 H           1 MS8       0.2010
     21 H3          4.4906   40.7463    7.8808 H           1 MS8       0.2010
     22 H4          5.9192   40.6579    7.0267 H           1 MS8       0.2010
     23 H5          2.7308   43.0771    6.9229 H           1 MS8       0.0359
     24 H6          2.6024   41.4527    6.3119 H           1 MS8       0.0359
     25 H7          3.4527   44.5164    3.3444 H           1 MS8       0.0311
     26 H8          4.3828   44.4855    4.8543 H           1 MS8       0.0311
     27 H9          0.2955   44.8255    5.4996 H           1 MS8       0.0620
     28 H10         2.5023   45.3585    6.1033 H           1 MS8       0.0622
     29 H11        -0.6205   44.6440    3.2888 H           1 MS8       0.0292
     30 H12         0.9693   44.4318    2.5434 H           1 MS8       0.0292
     31 H13        -0.1277   47.0177    3.7565 H           1 MS8       0.0288
     32 H14         0.1803   46.6934    2.0333 H           1 MS8       0.0288
     33 H15         1.9882   48.0679    3.1059 H           1 MS8       0.0560
     34 H16         2.6194   46.5420    2.4831 H           1 MS8       0.0560
@<TRIPOS>BOND
     1     1     2  ar
     2     2     3  ar
     3     2     4   1
     4     4     5   1
     5     4     6   1
     6     6     7   1
     7     7     8   1
     8     7     9   1
     9     7    12   1
    10     8    14   1
    11     9    10  ar
    12     9    11  ar
    13    12    13   1
    14    13    14   1
    15    13    15   1
    16    14    18   1
    17    15    16   1
    18    16    17   1
    19    17    18   1
    20     4    19   1
    21     5    20   1
    22     5    21   1
    23     5    22   1
    24     6    23   1
    25     6    24   1
    26     8    25   1
    27     8    26   1
    28    13    27   1
    29    14    28   1
    30    15    29   1
    31    15    30   1
    32    16    31   1
    33    16    32   1
    34    17    33   1
    35    17    34   1
@<TRIPOS>SUBSTRUCTURE
     1  MS8      2

