@<TRIPOS>MOLECULE
3gbb_ligand_022
    34    35
SMALL
GAST_HUCK
****
This file was generated by PARSER (from files_GN.cpp)

@<TRIPOS>ATOM
      1 O           0.2712   47.8552    2.6143 O.co2       1 MS8      -0.5643
      2 C           0.9856   46.7844    2.2004 C.2         1 MS8       0.0844
      3 OXT         2.3050   46.9614    1.9615 O.co2       1 MS8      -0.5643
      4 CA          0.3114   45.5008    1.9091 C.3         1 MS8       0.0305
      5 N           0.8632   44.8849    0.6928 N.4         1 MS8       0.2327
      6 CB          0.2852   44.5288    3.1286 C.3         1 MS8       0.0363
      7 CAS         1.6146   43.8453    3.6009 C.3         1 MS8       0.1229
      8 CAJ         2.0656   42.6713    2.6691 C.3         1 MS8       0.0101
      9 CAN         2.6736   44.8574    3.8661 C.2         1 MS8       0.0769
     10 OAC         2.5452   45.7190    4.9012 O.co2       1 MS8      -0.5451
     11 OAE         3.8060   44.9415    3.1335 O.co2       1 MS8      -0.5451
     12 OAL         1.3627   43.2390    4.8890 O.3         1 MS8      -0.3631
     13 CAR         1.4842   41.8147    4.7860 C.3         1 MS8       0.0848
     14 CAQ         2.5009   41.5793    3.6504 C.3         1 MS8       0.0868
     15 CAH         1.9320   41.1589    6.1152 C.3         1 MS8      -0.0222
     16 CAP         3.4231   41.4313    6.4292 C.3         1 MS8      -0.0270
     17 CAG         4.2985   41.0845    5.2043 C.3         1 MS8       0.0482
     18 OAK         3.8686   41.8259    4.0500 O.3         1 MS8      -0.3740
     19 H1         -0.7288   45.7378    1.6727 H           1 MS8       0.1024
     20 H2          0.3079   44.0642    0.4403 H           1 MS8       0.2010
     21 H3          1.8307   44.6052    0.8503 H           1 MS8       0.2010
     22 H4          0.8361   45.5582   -0.0791 H           1 MS8       0.2010
     23 H5         -0.4280   43.7328    2.8942 H           1 MS8       0.0359
     24 H6         -0.1376   45.0711    3.9801 H           1 MS8       0.0359
     25 H7          2.8670   42.9323    1.9766 H           1 MS8       0.0311
     26 H8          1.2286   42.2853    2.0777 H           1 MS8       0.0311
     27 H9          0.5079   41.3998    4.5074 H           1 MS8       0.0620
     28 H10         2.4059   40.5793    3.2128 H           1 MS8       0.0622
     29 H11         1.7746   40.0831    6.0362 H           1 MS8       0.0292
     30 H12         1.3136   41.5201    6.9380 H           1 MS8       0.0292
     31 H13         3.7406   40.8330    7.2845 H           1 MS8       0.0288
     32 H14         3.5585   42.4860    6.6804 H           1 MS8       0.0288
     33 H15         4.2691   40.0097    4.9986 H           1 MS8       0.0560
     34 H16         5.3301   41.3603    5.4212 H           1 MS8       0.0560
@<TRIPOS>BOND
     1     1     2  ar
     2     2     3  ar
     3     2     4   1
     4     4     5   1
     5     4     6   1
     6     6     7   1
     7     7     8   1
     8     7     9   1
     9     7    12   1
    10     8    14   1
    11     9    10  ar
    12     9    11  ar
    13    12    13   1
    14    13    14   1
    15    13    15   1
    16    14    18   1
    17    15    16   1
    18    16    17   1
    19    17    18   1
    20     4    19   1
    21     5    20   1
    22     5    21   1
    23     5    22   1
    24     6    23   1
    25     6    24   1
    26     8    25   1
    27     8    26   1
    28    13    27   1
    29    14    28   1
    30    15    29   1
    31    15    30   1
    32    16    31   1
    33    16    32   1
    34    17    33   1
    35    17    34   1
@<TRIPOS>SUBSTRUCTURE
     1  MS8      2

