@<TRIPOS>MOLECULE
3gbb_ligand_006
    34    35
SMALL
GAST_HUCK
****
This file was generated by PARSER (from files_GN.cpp)

@<TRIPOS>ATOM
      1 O          -0.2707   45.2651    0.4727 O.co2       1 MS8      -0.5643
      2 C          -0.4652   44.8162    1.7361 C.2         1 MS8       0.0844
      3 OXT        -0.9591   45.6685    2.6657 O.co2       1 MS8      -0.5643
      4 CA         -0.0053   43.4647    2.1204 C.3         1 MS8       0.0305
      5 N          -0.3749   42.5161    1.0601 N.4         1 MS8       0.2327
      6 CB          1.5215   43.3957    2.4597 C.3         1 MS8       0.0363
      7 CAS         1.8744   43.2571    3.9869 C.3         1 MS8       0.1229
      8 CAJ         1.5421   44.5698    4.7783 C.3         1 MS8       0.0101
      9 CAN         1.2746   42.0193    4.5650 C.2         1 MS8       0.0769
     10 OAC         1.1500   41.8739    5.9018 O.co2       1 MS8      -0.5451
     11 OAE         1.3718   40.8587    3.8725 O.co2       1 MS8      -0.5451
     12 OAL         3.3084   43.0867    4.0596 O.3         1 MS8      -0.3631
     13 CAR         3.9035   44.1669    4.7947 C.3         1 MS8       0.0848
     14 CAQ         2.8802   45.3238    4.7593 C.3         1 MS8       0.0868
     15 CAH         4.2491   43.7064    6.2363 C.3         1 MS8      -0.0222
     16 CAP         4.5477   44.9189    7.1452 C.3         1 MS8      -0.0270
     17 CAG         3.3759   45.9291    7.0946 C.3         1 MS8       0.0482
     18 OAK         3.0831   46.3572    5.7515 O.3         1 MS8      -0.3740
     19 H1         -0.5826   43.1680    2.9926 H           1 MS8       0.1024
     20 H2         -0.0102   41.5873    1.2791 H           1 MS8       0.2010
     21 H3          0.0206   42.8222    0.1658 H           1 MS8       0.2010
     22 H4         -1.3910   42.4611    0.9832 H           1 MS8       0.2010
     23 H5          2.0386   44.2731    2.0539 H           1 MS8       0.0359
     24 H6          1.9684   42.5446    1.9355 H           1 MS8       0.0359
     25 H7          1.2409   44.3666    5.8110 H           1 MS8       0.0311
     26 H8          0.7600   45.1764    4.3137 H           1 MS8       0.0311
     27 H9          4.8264   44.4718    4.2929 H           1 MS8       0.0620
     28 H10         2.9672   45.8252    3.7921 H           1 MS8       0.0622
     29 H11         5.1125   43.0394    6.2122 H           1 MS8       0.0292
     30 H12         3.4156   43.1468    6.6605 H           1 MS8       0.0292
     31 H13         5.4691   45.4070    6.8108 H           1 MS8       0.0288
     32 H14         4.6973   44.5746    8.1714 H           1 MS8       0.0288
     33 H15         3.6423   46.8112    7.6822 H           1 MS8       0.0560
     34 H16         2.4838   45.4904    7.5435 H           1 MS8       0.0560
@<TRIPOS>BOND
     1     1     2  ar
     2     2     3  ar
     3     2     4   1
     4     4     5   1
     5     4     6   1
     6     6     7   1
     7     7     8   1
     8     7     9   1
     9     7    12   1
    10     8    14   1
    11     9    10  ar
    12     9    11  ar
    13    12    13   1
    14    13    14   1
    15    13    15   1
    16    14    18   1
    17    15    16   1
    18    16    17   1
    19    17    18   1
    20     4    19   1
    21     5    20   1
    22     5    21   1
    23     5    22   1
    24     6    23   1
    25     6    24   1
    26     8    25   1
    27     8    26   1
    28    13    27   1
    29    14    28   1
    30    15    29   1
    31    15    30   1
    32    16    31   1
    33    16    32   1
    34    17    33   1
    35    17    34   1
@<TRIPOS>SUBSTRUCTURE
     1  MS8      2

