@<TRIPOS>MOLECULE
3gbb_ligand_004
    34    35
SMALL
GAST_HUCK
****
This file was generated by PARSER (from files_GN.cpp)

@<TRIPOS>ATOM
      1 O           0.0566   46.7582    1.8857 O.co2       1 MS8      -0.5643
      2 C           1.3299   46.8945    2.3224 C.2         1 MS8       0.0844
      3 OXT         2.3301   46.8117    1.4169 O.co2       1 MS8      -0.5643
      4 CA          1.6053   47.1707    3.7490 C.3         1 MS8       0.0305
      5 N           1.0351   48.4893    4.0612 N.4         1 MS8       0.2327
      6 CB          1.0654   46.0461    4.7023 C.3         1 MS8       0.0363
      7 CAS         2.1072   45.0058    5.2602 C.3         1 MS8       0.1229
      8 CAJ         2.9876   44.3297    4.1626 C.3         1 MS8       0.0101
      9 CAN         2.9484   45.5977    6.3416 C.2         1 MS8       0.0769
     10 OAC         3.2061   46.9224    6.4089 O.co2       1 MS8      -0.5451
     11 OAE         3.5580   44.7984    7.2495 O.co2       1 MS8      -0.5451
     12 OAL         1.3282   43.9348    5.8504 O.3         1 MS8      -0.3631
     13 CAR         1.5093   42.7151    5.1092 C.3         1 MS8       0.0848
     14 CAQ         2.1388   43.1183    3.7571 C.3         1 MS8       0.0868
     15 CAH         2.3905   41.7369    5.9365 C.3         1 MS8      -0.0222
     16 CAP         2.9811   40.6124    5.0591 C.3         1 MS8      -0.0270
     17 CAG         3.6747   41.2003    3.8078 C.3         1 MS8       0.0482
     18 OAK         2.8078   42.0551    3.0425 O.3         1 MS8      -0.3740
     19 H1          2.6796   47.2744    3.8828 H           1 MS8       0.1024
     20 H2          1.1524   48.6891    5.0582 H           1 MS8       0.2010
     21 H3          0.0393   48.4946    3.8311 H           1 MS8       0.2010
     22 H4          1.5182   49.2069    3.5112 H           1 MS8       0.2010
     23 H5          0.2606   45.5001    4.1943 H           1 MS8       0.0359
     24 H6          0.5913   46.5171    5.5685 H           1 MS8       0.0359
     25 H7          3.9443   43.9878    4.5730 H           1 MS8       0.0311
     26 H8          3.1987   44.9641    3.2967 H           1 MS8       0.0311
     27 H9          0.5339   42.2501    4.9340 H           1 MS8       0.0620
     28 H10         1.3406   43.4671    3.0933 H           1 MS8       0.0622
     29 H11         1.7934   41.2963    6.7399 H           1 MS8       0.0292
     30 H12         3.2158   42.2836    6.3973 H           1 MS8       0.0292
     31 H13         2.1848   39.9309    4.7480 H           1 MS8       0.0288
     32 H14         3.7168   40.0498    5.6382 H           1 MS8       0.0288
     33 H15         3.9666   40.3718    3.1600 H           1 MS8       0.0560
     34 H16         4.5810   41.7419    4.0968 H           1 MS8       0.0560
@<TRIPOS>BOND
     1     1     2  ar
     2     2     3  ar
     3     2     4   1
     4     4     5   1
     5     4     6   1
     6     6     7   1
     7     7     8   1
     8     7     9   1
     9     7    12   1
    10     8    14   1
    11     9    10  ar
    12     9    11  ar
    13    12    13   1
    14    13    14   1
    15    13    15   1
    16    14    18   1
    17    15    16   1
    18    16    17   1
    19    17    18   1
    20     4    19   1
    21     5    20   1
    22     5    21   1
    23     5    22   1
    24     6    23   1
    25     6    24   1
    26     8    25   1
    27     8    26   1
    28    13    27   1
    29    14    28   1
    30    15    29   1
    31    15    30   1
    32    16    31   1
    33    16    32   1
    34    17    33   1
    35    17    34   1
@<TRIPOS>SUBSTRUCTURE
     1  MS8      2

