@<TRIPOS>MOLECULE
3gbb_ligand_005
    34    35
SMALL
GAST_HUCK
****
This file was generated by PARSER (from files_GN.cpp)

@<TRIPOS>ATOM
      1 O          -0.4198   45.1966    0.5702 O.co2       1 MS8      -0.5643
      2 C          -0.3292   44.7090    1.8286 C.2         1 MS8       0.0844
      3 OXT        -0.8172   45.4602    2.8390 O.co2       1 MS8      -0.5643
      4 CA          0.2230   43.3559    2.0598 C.3         1 MS8       0.0305
      5 N          -0.5539   42.3604    1.2918 N.4         1 MS8       0.2327
      6 CB          1.7397   43.2635    1.6914 C.3         1 MS8       0.0363
      7 CAS         2.7848   43.8639    2.7209 C.3         1 MS8       0.1229
      8 CAJ         3.6923   42.7583    3.3736 C.3         1 MS8       0.0101
      9 CAN         3.5512   44.9828    2.0959 C.2         1 MS8       0.0769
     10 OAC         4.8937   44.9781    1.9459 O.co2       1 MS8      -0.5451
     11 OAE         2.8967   46.0922    1.6712 O.co2       1 MS8      -0.5451
     12 OAL         2.1301   44.5154    3.8318 O.3         1 MS8      -0.3631
     13 CAR         2.2887   43.7157    5.0080 C.3         1 MS8       0.0848
     14 CAQ         3.6905   43.0908    4.8683 C.3         1 MS8       0.0868
     15 CAH         2.1333   44.5434    6.3073 C.3         1 MS8      -0.0222
     16 CAP         3.3540   45.4504    6.5885 C.3         1 MS8      -0.0270
     17 CAG         4.6591   44.6254    6.4632 C.3         1 MS8       0.0482
     18 OAK         4.7524   44.0266    5.1589 O.3         1 MS8      -0.3740
     19 H1          0.0894   43.0897    3.1091 H           1 MS8       0.1024
     20 H2         -0.1814   41.4278    1.4821 H           1 MS8       0.2010
     21 H3         -0.4815   42.5457    0.2879 H           1 MS8       0.2010
     22 H4         -1.5391   42.3752    1.5686 H           1 MS8       0.2010
     23 H5          1.8705   43.7154    0.7022 H           1 MS8       0.0359
     24 H6          1.9641   42.2062    1.5271 H           1 MS8       0.0359
     25 H7          4.7084   42.7178    2.9767 H           1 MS8       0.0311
     26 H8          3.2602   41.7595    3.2697 H           1 MS8       0.0311
     27 H9          1.5232   42.9306    5.0037 H           1 MS8       0.0620
     28 H10         3.7946   42.1880    5.4825 H           1 MS8       0.0622
     29 H11         2.0288   43.8469    7.1413 H           1 MS8       0.0292
     30 H12         1.2190   45.1402    6.2532 H           1 MS8       0.0292
     31 H13         3.2745   45.8648    7.5947 H           1 MS8       0.0288
     32 H14         3.3604   46.2783    5.8740 H           1 MS8       0.0288
     33 H15         4.6952   43.8517    7.2353 H           1 MS8       0.0560
     34 H16         5.5228   45.2757    6.6007 H           1 MS8       0.0560
@<TRIPOS>BOND
     1     1     2  ar
     2     2     3  ar
     3     2     4   1
     4     4     5   1
     5     4     6   1
     6     6     7   1
     7     7     8   1
     8     7     9   1
     9     7    12   1
    10     8    14   1
    11     9    10  ar
    12     9    11  ar
    13    12    13   1
    14    13    14   1
    15    13    15   1
    16    14    18   1
    17    15    16   1
    18    16    17   1
    19    17    18   1
    20     4    19   1
    21     5    20   1
    22     5    21   1
    23     5    22   1
    24     6    23   1
    25     6    24   1
    26     8    25   1
    27     8    26   1
    28    13    27   1
    29    14    28   1
    30    15    29   1
    31    15    30   1
    32    16    31   1
    33    16    32   1
    34    17    33   1
    35    17    34   1
@<TRIPOS>SUBSTRUCTURE
     1  MS8      2

