@<TRIPOS>MOLECULE
3gbb_ligand_037
    34    35
SMALL
GAST_HUCK
****
This file was generated by PARSER (from files_GN.cpp)

@<TRIPOS>ATOM
      1 O          -0.0908   39.0894    7.0238 O.co2       1 MS8      -0.5643
      2 C           0.5141   39.2662    5.8277 C.2         1 MS8       0.0844
      3 OXT         0.6256   38.1776    5.0056 O.co2       1 MS8      -0.5643
      4 CA          1.0123   40.6387    5.4775 C.3         1 MS8       0.0305
      5 N           1.8156   41.1450    6.6141 N.4         1 MS8       0.2327
      6 CB          1.8064   40.7254    4.1264 C.3         1 MS8       0.0363
      7 CAS         1.6684   42.0160    3.2134 C.3         1 MS8       0.1229
      8 CAJ         2.7521   43.1110    3.4807 C.3         1 MS8       0.0101
      9 CAN         1.6744   41.6302    1.7683 C.2         1 MS8       0.0769
     10 OAC         1.3062   42.5146    0.8073 O.co2       1 MS8      -0.5451
     11 OAE         2.2729   40.4871    1.3618 O.co2       1 MS8      -0.5451
     12 OAL         0.3800   42.6374    3.4547 O.3         1 MS8      -0.3631
     13 CAR         0.5368   44.0023    3.8993 C.3         1 MS8       0.0848
     14 CAQ         2.0257   44.1913    4.2942 C.3         1 MS8       0.0868
     15 CAH         0.0432   44.9737    2.7883 C.3         1 MS8      -0.0222
     16 CAP         0.6322   46.3946    2.9311 C.3         1 MS8      -0.0270
     17 CAG         2.1681   46.3048    3.0248 C.3         1 MS8       0.0482
     18 OAK         2.5714   45.5322    4.1701 O.3         1 MS8      -0.3740
     19 H1          0.1306   41.2774    5.3878 H           1 MS8       0.1024
     20 H2          2.0499   42.1278    6.4575 H           1 MS8       0.2010
     21 H3          2.6875   40.5982    6.6891 H           1 MS8       0.2010
     22 H4          1.2573   41.0563    7.4775 H           1 MS8       0.2010
     23 H5          1.4737   39.8709    3.4955 H           1 MS8       0.0359
     24 H6          2.8831   40.5678    4.3372 H           1 MS8       0.0359
     25 H7          3.1203   43.5546    2.5466 H           1 MS8       0.0311
     26 H8          3.6229   42.7146    4.0287 H           1 MS8       0.0311
     27 H9         -0.0838   44.1448    4.7917 H           1 MS8       0.0620
     28 H10         2.1300   43.9371    5.3539 H           1 MS8       0.0622
     29 H11        -1.0434   45.0244    2.8260 H           1 MS8       0.0292
     30 H12         0.3219   44.5986    1.8056 H           1 MS8       0.0292
     31 H13         0.2473   46.8726    3.8361 H           1 MS8       0.0288
     32 H14         0.3515   47.0027    2.0697 H           1 MS8       0.0288
     33 H15         2.5706   47.3136    3.1450 H           1 MS8       0.0560
     34 H16         2.5946   45.8838    2.1048 H           1 MS8       0.0560
@<TRIPOS>BOND
     1     1     2  ar
     2     2     3  ar
     3     2     4   1
     4     4     5   1
     5     4     6   1
     6     6     7   1
     7     7     8   1
     8     7     9   1
     9     7    12   1
    10     8    14   1
    11     9    10  ar
    12     9    11  ar
    13    12    13   1
    14    13    14   1
    15    13    15   1
    16    14    18   1
    17    15    16   1
    18    16    17   1
    19    17    18   1
    20     4    19   1
    21     5    20   1
    22     5    21   1
    23     5    22   1
    24     6    23   1
    25     6    24   1
    26     8    25   1
    27     8    26   1
    28    13    27   1
    29    14    28   1
    30    15    29   1
    31    15    30   1
    32    16    31   1
    33    16    32   1
    34    17    33   1
    35    17    34   1
@<TRIPOS>SUBSTRUCTURE
     1  MS8      2

