@<TRIPOS>MOLECULE
3gbb_ligand_069
    34    35
SMALL
GAST_HUCK
****
This file was generated by PARSER (from files_GN.cpp)

@<TRIPOS>ATOM
      1 O           3.5580   40.1404    2.7299 O.co2       1 MS8      -0.5643
      2 C           2.3735   40.4573    3.3105 C.2         1 MS8       0.0844
      3 OXT         1.9663   39.7390    4.3851 O.co2       1 MS8      -0.5643
      4 CA          1.6033   41.6177    2.8169 C.3         1 MS8       0.0305
      5 N           0.4092   41.0961    2.1281 N.4         1 MS8       0.2327
      6 CB          1.2620   42.6181    3.9785 C.3         1 MS8       0.0363
      7 CAS         1.1373   44.1561    3.6627 C.3         1 MS8       0.1229
      8 CAJ        -0.0100   44.5767    2.6990 C.3         1 MS8       0.0101
      9 CAN         0.9878   44.8800    4.9579 C.2         1 MS8       0.0769
     10 OAC         0.0674   44.4841    5.8681 O.co2       1 MS8      -0.5451
     11 OAE         1.7887   45.9225    5.2931 O.co2       1 MS8      -0.5451
     12 OAL         2.3560   44.6252    3.0463 O.3         1 MS8      -0.3631
     13 CAR         2.1572   44.8289    1.6434 C.3         1 MS8       0.0848
     14 CAQ         0.6489   44.6554    1.3191 C.3         1 MS8       0.0868
     15 CAH         2.7015   46.2125    1.2112 C.3         1 MS8      -0.0222
     16 CAP         2.3034   46.5582   -0.2484 C.3         1 MS8      -0.0270
     17 CAG         0.8777   46.0453   -0.6292 C.3         1 MS8       0.0482
     18 OAK         0.0825   45.7269    0.5248 O.3         1 MS8      -0.3740
     19 H1          2.2141   42.1253    2.0703 H           1 MS8       0.1024
     20 H2         -0.2375   41.8545    1.9291 H           1 MS8       0.2010
     21 H3         -0.0562   40.4057    2.7176 H           1 MS8       0.2010
     22 H4          0.6702   40.6489    1.2459 H           1 MS8       0.2010
     23 H5          2.0559   42.5318    4.7305 H           1 MS8       0.0359
     24 H6          0.3410   42.2787    4.4582 H           1 MS8       0.0359
     25 H7         -0.4007   45.5693    2.9512 H           1 MS8       0.0311
     26 H8         -0.8422   43.8719    2.7122 H           1 MS8       0.0311
     27 H9          2.7295   44.0684    1.1072 H           1 MS8       0.0620
     28 H10         0.4920   43.7095    0.7878 H           1 MS8       0.0622
     29 H11         3.7900   46.2085    1.2946 H           1 MS8       0.0292
     30 H12         2.3095   46.9788    1.8840 H           1 MS8       0.0292
     31 H13         3.0318   46.1282   -0.9366 H           1 MS8       0.0288
     32 H14         2.3583   47.6427   -0.3746 H           1 MS8       0.0288
     33 H15         0.9437   45.1549   -1.2542 H           1 MS8       0.0560
     34 H16         0.3529   46.8021   -1.2158 H           1 MS8       0.0560
@<TRIPOS>BOND
     1     1     2  ar
     2     2     3  ar
     3     2     4   1
     4     4     5   1
     5     4     6   1
     6     6     7   1
     7     7     8   1
     8     7     9   1
     9     7    12   1
    10     8    14   1
    11     9    10  ar
    12     9    11  ar
    13    12    13   1
    14    13    14   1
    15    13    15   1
    16    14    18   1
    17    15    16   1
    18    16    17   1
    19    17    18   1
    20     4    19   1
    21     5    20   1
    22     5    21   1
    23     5    22   1
    24     6    23   1
    25     6    24   1
    26     8    25   1
    27     8    26   1
    28    13    27   1
    29    14    28   1
    30    15    29   1
    31    15    30   1
    32    16    31   1
    33    16    32   1
    34    17    33   1
    35    17    34   1
@<TRIPOS>SUBSTRUCTURE
     1  MS8      2

