@<TRIPOS>MOLECULE
3gcs_ligand_046
    48    50
SMALL
GAST_HUCK
****
This file was generated by PARSER (from files_GN.cpp)

@<TRIPOS>ATOM
      1 C1        -20.5521   -0.6000   21.8560 C.ar        1 BAX      -0.0127
      2 C2        -21.3614   -1.5371   21.1697 C.ar        1 BAX       0.0959
      3 C3        -22.6462   -1.8062   21.6769 C.ar        1 BAX      -0.0108
      4 C4        -23.1303   -1.1301   22.8072 C.ar        1 BAX      -0.0291
      5 C13       -21.3688   -2.0486   18.7790 C.2         1 BAX       0.3148
      6 C16       -21.2425   -3.0969   16.5938 C.ar        1 BAX       0.0577
      7 C17       -22.3730   -3.8806   16.2695 C.ar        1 BAX      -0.0478
      8 C18       -22.7801   -4.0394   14.9311 C.ar        1 BAX      -0.0404
      9 C19       -22.0351   -3.4603   13.8827 C.ar        1 BAX       0.1047
     10 C20       -20.8872   -2.7052   14.1986 C.ar        1 BAX      -0.0404
     11 C21       -20.4894   -2.5263   15.5372 C.ar        1 BAX      -0.0478
     12 O22       -22.4431   -3.5466   12.5757 O.3         1 BAX      -0.2564
     13 C24       -22.4140   -5.4567   11.1363 C.ar        1 BAX       0.0024
     14 C25       -21.6858   -6.3599   10.3459 C.ar        1 BAX       0.0057
     15 C27       -19.6160   -5.2553   10.8814 C.ar        1 BAX       0.1117
     16 C28       -20.3244   -4.3320   11.6894 C.ar        1 BAX       0.0183
     17 N30       -17.6215   -6.1232    9.9549 N.am        1 BAX      -0.2874
     18 C31       -16.2197   -6.1979    9.7013 C.3         1 BAX       0.0193
     19 C5        -22.3378   -0.1687   23.4609 C.ar        1 BAX       0.0592
     20 C6        -21.0151    0.1071   22.9977 C.ar        1 BAX       0.0462
     21 C7        -20.1380    1.1018   23.6891 C.3         1 BAX       0.3715
     22 F8        -18.8791    1.2552   23.1461 F           1 BAX      -0.2224
     23 F9        -20.7209    2.3493   23.6582 F           1 BAX      -0.2224
     24 F10       -19.9367    0.7349   25.0000 F           1 BAX      -0.2224
     25 CL11      -23.0341    0.5968   24.8097 Cl          1 BAX      -0.0539
     26 N12       -20.9930   -2.2214   20.0396 N.am        1 BAX      -0.2087
     27 N14       -20.9386   -2.9656   17.9199 N.am        1 BAX      -0.2199
     28 O15       -22.1903   -1.1949   18.4513 O.2         1 BAX      -0.3813
     29 C23       -21.7257   -4.4465   11.8330 C.ar        1 BAX       0.1379
     30 N26       -20.3379   -6.2260   10.2534 N.ar        1 BAX      -0.2925
     31 C29       -18.2324   -5.2146   10.7068 C.2         1 BAX       0.2205
     32 O32       -17.5700   -4.3427   11.2548 O.2         1 BAX      -0.3791
     33 H1        -19.6004   -0.4441   21.5245 H           1 BAX       0.0706
     34 H2        -23.2519   -2.4922   21.2145 H           1 BAX       0.0758
     35 H3        -24.0768   -1.3346   23.1417 H           1 BAX       0.0670
     36 H4        -22.9306   -4.3149   17.0097 H           1 BAX       0.0480
     37 H5        -23.6267   -4.5760   14.7217 H           1 BAX       0.0520
     38 H6        -20.3402   -2.2745   13.4491 H           1 BAX       0.0520
     39 H7        -19.6410   -1.9893   15.7344 H           1 BAX       0.0480
     40 H8        -23.4316   -5.5399   11.2073 H           1 BAX       0.0673
     41 H9        -22.1612   -7.1096    9.8398 H           1 BAX       0.0803
     42 H10       -19.8362   -3.5771   12.1739 H           1 BAX       0.0696
     43 H11       -18.1752   -6.8012    9.5372 H           1 BAX       0.1844
     44 H12       -16.0221   -7.0538    9.0530 H           1 BAX       0.0484
     45 H13       -15.6687   -6.3303   10.6344 H           1 BAX       0.0484
     46 H14       -15.8728   -5.2931    9.1987 H           1 BAX       0.0484
     47 H15       -20.4535   -3.0163   20.1953 H           1 BAX       0.2266
     48 H16       -20.4421   -3.7030   18.3076 H           1 BAX       0.2230
@<TRIPOS>BOND
     1     2     1  ar
     2     1    20  ar
     3     2     3  ar
     4    26     2   1
     5     3     4  ar
     6     4    19  ar
     7     5    26  am
     8    27     5  am
     9     5    28   2
    10     7     6  ar
    11    11     6  ar
    12     6    27   1
    13     8     7  ar
    14     9     8  ar
    15     9    10  ar
    16    12     9   1
    17    10    11  ar
    18    29    12   1
    19    14    13  ar
    20    29    13  ar
    21    30    14  ar
    22    15    16  ar
    23    15    30  ar
    24    31    15   1
    25    16    29  ar
    26    17    18   1
    27    17    31  am
    28    19    20  ar
    29    19    25   1
    30    20    21   1
    31    21    22   1
    32    21    23   1
    33    21    24   1
    34    31    32   2
    35     1    33   1
    36     3    34   1
    37     4    35   1
    38     7    36   1
    39     8    37   1
    40    10    38   1
    41    11    39   1
    42    13    40   1
    43    14    41   1
    44    16    42   1
    45    17    43   1
    46    18    44   1
    47    18    45   1
    48    18    46   1
    49    26    47   1
    50    27    48   1
@<TRIPOS>SUBSTRUCTURE
     1  BAX      1

