@<TRIPOS>MOLECULE
3gcs_ligand_048
    48    50
SMALL
GAST_HUCK
****
This file was generated by PARSER (from files_GN.cpp)

@<TRIPOS>ATOM
      1 C1         -9.8729   -9.1950   18.1889 C.ar        1 BAX      -0.0127
      2 C2        -10.1361   -7.9408   18.7833 C.ar        1 BAX       0.0959
      3 C3         -9.0506   -7.1107   19.1168 C.ar        1 BAX      -0.0108
      4 C4         -7.7349   -7.5145   18.8544 C.ar        1 BAX      -0.0291
      5 C13       -12.5254   -7.6549   18.4364 C.2         1 BAX       0.3148
      6 C16       -14.8252   -6.9219   18.4178 C.ar        1 BAX       0.0577
      7 C17       -15.0935   -6.8357   17.0307 C.ar        1 BAX      -0.0478
      8 C18       -16.4144   -6.7376   16.5621 C.ar        1 BAX      -0.0404
      9 C19       -17.4849   -6.6942   17.4768 C.ar        1 BAX       0.1047
     10 C20       -17.2253   -6.7804   18.8591 C.ar        1 BAX      -0.0404
     11 C21       -15.9032   -6.8763   19.3264 C.ar        1 BAX      -0.0478
     12 O22       -18.7751   -6.6442   17.0367 O.3         1 BAX      -0.2564
     13 C24       -19.7660   -4.6237   17.8742 C.ar        1 BAX       0.0024
     14 C25       -20.2975   -3.3519   17.6189 C.ar        1 BAX       0.0057
     15 C27       -19.7494   -3.5237   15.2836 C.ar        1 BAX       0.1117
     16 C28       -19.1831   -4.8037   15.5159 C.ar        1 BAX       0.0183
     17 N30       -20.4111   -1.7527   13.8732 N.am        1 BAX      -0.2874
     18 C31       -20.5917   -1.0552   12.6456 C.3         1 BAX       0.0193
     19 C5         -7.4799   -8.7834   18.2955 C.ar        1 BAX       0.0592
     20 C6         -8.5528   -9.6411   17.9229 C.ar        1 BAX       0.0462
     21 C7         -8.3194  -10.9971   17.3346 C.3         1 BAX       0.3715
     22 F8         -9.4437  -11.5865   16.8048 F           1 BAX      -0.2224
     23 F9         -7.4303  -10.9654   16.2911 F           1 BAX      -0.2224
     24 F10        -7.8321  -11.8328   18.3108 F           1 BAX      -0.2224
     25 CL11       -5.8516   -9.2416   18.1747 Cl          1 BAX      -0.0539
     26 N12       -11.3862   -7.4794   19.0823 N.am        1 BAX      -0.2087
     27 N14       -13.5658   -7.0022   18.9326 N.am        1 BAX      -0.2199
     28 O15       -12.6058   -8.3465   17.4284 O.2         1 BAX      -0.3813
     29 C23       -19.1944   -5.3569   16.8159 C.ar        1 BAX       0.1379
     30 N26       -20.2766   -2.8641   16.3549 N.ar        1 BAX      -0.2925
     31 C29       -19.8163   -2.9312   14.0249 C.2         1 BAX       0.2205
     32 O32       -19.3454   -3.5013   13.0469 O.2         1 BAX      -0.3791
     33 H1        -10.6633   -9.8117   17.9957 H           1 BAX       0.0706
     34 H2         -9.2136   -6.1925   19.5337 H           1 BAX       0.0758
     35 H3         -6.9653   -6.8811   19.0950 H           1 BAX       0.0670
     36 H4        -14.3296   -6.8239   16.3527 H           1 BAX       0.0480
     37 H5        -16.5918   -6.6838   15.5579 H           1 BAX       0.0520
     38 H6        -17.9999   -6.7671   19.5269 H           1 BAX       0.0520
     39 H7        -15.7290   -6.9251   20.3341 H           1 BAX       0.0480
     40 H8        -19.8149   -5.0226   18.8131 H           1 BAX       0.0673
     41 H9        -20.7192   -2.8040   18.3688 H           1 BAX       0.0803
     42 H10       -18.7957   -5.3537   14.7451 H           1 BAX       0.0696
     43 H11       -20.7673   -1.3295   14.6704 H           1 BAX       0.1844
     44 H12       -21.1137   -0.1189   12.8454 H           1 BAX       0.0484
     45 H13       -21.1928   -1.6524   11.9586 H           1 BAX       0.0484
     46 H14       -19.6284   -0.8300   12.1854 H           1 BAX       0.0484
     47 H15       -11.4322   -6.8489   19.8145 H           1 BAX       0.2266
     48 H16       -13.4261   -6.5607   19.7873 H           1 BAX       0.2230
@<TRIPOS>BOND
     1     2     1  ar
     2     1    20  ar
     3     2     3  ar
     4    26     2   1
     5     3     4  ar
     6     4    19  ar
     7     5    26  am
     8    27     5  am
     9     5    28   2
    10     7     6  ar
    11    11     6  ar
    12     6    27   1
    13     8     7  ar
    14     9     8  ar
    15     9    10  ar
    16    12     9   1
    17    10    11  ar
    18    29    12   1
    19    14    13  ar
    20    29    13  ar
    21    30    14  ar
    22    15    16  ar
    23    15    30  ar
    24    31    15   1
    25    16    29  ar
    26    17    18   1
    27    17    31  am
    28    19    20  ar
    29    19    25   1
    30    20    21   1
    31    21    22   1
    32    21    23   1
    33    21    24   1
    34    31    32   2
    35     1    33   1
    36     3    34   1
    37     4    35   1
    38     7    36   1
    39     8    37   1
    40    10    38   1
    41    11    39   1
    42    13    40   1
    43    14    41   1
    44    16    42   1
    45    17    43   1
    46    18    44   1
    47    18    45   1
    48    18    46   1
    49    26    47   1
    50    27    48   1
@<TRIPOS>SUBSTRUCTURE
     1  BAX      1

