@<TRIPOS>MOLECULE
3gcs_ligand_021
    48    50
SMALL
GAST_HUCK
****
This file was generated by PARSER (from files_GN.cpp)

@<TRIPOS>ATOM
      1 C1        -15.2602   -8.9363   18.3905 C.ar        1 BAX      -0.0127
      2 C2        -15.3179   -7.5299   18.3730 C.ar        1 BAX       0.0959
      3 C3        -14.2870   -6.8019   17.7542 C.ar        1 BAX      -0.0108
      4 C4        -13.2186   -7.4741   17.1445 C.ar        1 BAX      -0.0291
      5 C13       -17.4674   -6.5123   18.5894 C.2         1 BAX       0.3148
      6 C16       -19.2525   -4.9507   19.0684 C.ar        1 BAX       0.0577
      7 C17       -19.2770   -3.5720   19.3647 C.ar        1 BAX      -0.0478
      8 C18       -20.4485   -2.8220   19.1704 C.ar        1 BAX      -0.0404
      9 C19       -21.6401   -3.4446   18.7280 C.ar        1 BAX       0.1047
     10 C20       -21.6095   -4.8207   18.4252 C.ar        1 BAX      -0.0404
     11 C21       -20.4268   -5.5678   18.5835 C.ar        1 BAX      -0.0478
     12 O22       -22.8161   -2.7662   18.5008 O.3         1 BAX      -0.2564
     13 C24       -23.9705   -2.5572   20.6188 C.ar        1 BAX       0.0024
     14 C25       -24.3915   -1.7222   21.6676 C.ar        1 BAX       0.0057
     15 C27       -23.3861    0.1996   20.6283 C.ar        1 BAX       0.1117
     16 C28       -22.9912   -0.6097   19.5349 C.ar        1 BAX       0.0183
     17 N30       -23.4041    2.2663   21.7788 N.am        1 BAX      -0.2874
     18 C31       -23.1288    3.6521   21.9683 C.3         1 BAX       0.0193
     19 C5        -13.1474   -8.8806   17.1769 C.ar        1 BAX       0.0592
     20 C6        -14.1819   -9.6413   17.7953 C.ar        1 BAX       0.0462
     21 C7        -14.1358  -11.1354   17.8435 C.3         1 BAX       0.3715
     22 F8        -15.2326  -11.7317   18.4172 F           1 BAX      -0.2224
     23 F9        -14.0582  -11.6499   16.5734 F           1 BAX      -0.2224
     24 F10       -13.0461  -11.5583   18.5654 F           1 BAX      -0.2224
     25 CL11      -11.7600   -9.5769   16.4880 Cl          1 BAX      -0.0539
     26 N12       -16.2794   -6.8598   19.0531 N.am        1 BAX      -0.2087
     27 N14       -18.1005   -5.6216   19.3347 N.am        1 BAX      -0.2199
     28 O15       -17.8779   -6.8764   17.4938 O.2         1 BAX      -0.3813
     29 C23       -23.2540   -1.9945   19.5445 C.ar        1 BAX       0.1379
     30 N26       -24.0788   -0.4014   21.6388 N.ar        1 BAX      -0.2925
     31 C29       -23.0735    1.5553   20.7074 C.2         1 BAX       0.2205
     32 O32       -22.4740    2.1011   19.7873 O.2         1 BAX      -0.3791
     33 H1        -16.0036   -9.4397   18.8784 H           1 BAX       0.0706
     34 H2        -14.2997   -5.7810   17.7596 H           1 BAX       0.0758
     35 H3        -12.4791   -6.9256   16.7000 H           1 BAX       0.0670
     36 H4        -18.4349   -3.0988   19.7062 H           1 BAX       0.0480
     37 H5        -20.4281   -1.8219   19.3725 H           1 BAX       0.0520
     38 H6        -22.4545   -5.2870   18.0858 H           1 BAX       0.0520
     39 H7        -20.4357   -6.5661   18.3683 H           1 BAX       0.0480
     40 H8        -24.1689   -3.5599   20.6435 H           1 BAX       0.0673
     41 H9        -24.9121   -2.1053   22.4581 H           1 BAX       0.0803
     42 H10       -22.4794   -0.2114   18.7437 H           1 BAX       0.0696
     43 H11       -23.8750    1.8100   22.4942 H           1 BAX       0.1844
     44 H12       -23.5297    3.9673   22.9317 H           1 BAX       0.0484
     45 H13       -23.5993    4.2453   21.1814 H           1 BAX       0.0484
     46 H14       -22.0512    3.8283   21.9621 H           1 BAX       0.0484
     47 H15       -16.0132   -6.4732   19.9023 H           1 BAX       0.2266
     48 H16       -17.6052   -5.3037   20.1070 H           1 BAX       0.2230
@<TRIPOS>BOND
     1     2     1  ar
     2     1    20  ar
     3     2     3  ar
     4    26     2   1
     5     3     4  ar
     6     4    19  ar
     7     5    26  am
     8    27     5  am
     9     5    28   2
    10     7     6  ar
    11    11     6  ar
    12     6    27   1
    13     8     7  ar
    14     9     8  ar
    15     9    10  ar
    16    12     9   1
    17    10    11  ar
    18    29    12   1
    19    14    13  ar
    20    29    13  ar
    21    30    14  ar
    22    15    16  ar
    23    15    30  ar
    24    31    15   1
    25    16    29  ar
    26    17    18   1
    27    17    31  am
    28    19    20  ar
    29    19    25   1
    30    20    21   1
    31    21    22   1
    32    21    23   1
    33    21    24   1
    34    31    32   2
    35     1    33   1
    36     3    34   1
    37     4    35   1
    38     7    36   1
    39     8    37   1
    40    10    38   1
    41    11    39   1
    42    13    40   1
    43    14    41   1
    44    16    42   1
    45    17    43   1
    46    18    44   1
    47    18    45   1
    48    18    46   1
    49    26    47   1
    50    27    48   1
@<TRIPOS>SUBSTRUCTURE
     1  BAX      1

