@<TRIPOS>MOLECULE
3gcs_ligand_010
    48    50
SMALL
GAST_HUCK
****
This file was generated by PARSER (from files_GN.cpp)

@<TRIPOS>ATOM
      1 C1        -15.6813   -8.4041   16.0210 C.ar        1 BAX      -0.0127
      2 C2        -16.6433   -7.3807   16.1310 C.ar        1 BAX       0.0959
      3 C3        -16.7390   -6.6401   17.3213 C.ar        1 BAX      -0.0108
      4 C4        -15.8598   -6.9064   18.3834 C.ar        1 BAX      -0.0291
      5 C13       -17.2008   -6.8098   13.8784 C.2         1 BAX       0.3148
      6 C16       -18.2779   -6.3104   11.7544 C.ar        1 BAX       0.0577
      7 C17       -17.5673   -5.2107   11.2168 C.ar        1 BAX      -0.0478
      8 C18       -17.7833   -4.8037    9.8850 C.ar        1 BAX      -0.0404
      9 C19       -18.7135   -5.4865    9.0707 C.ar        1 BAX       0.1047
     10 C20       -19.3721   -6.6207    9.5823 C.ar        1 BAX      -0.0404
     11 C21       -19.1797   -7.0112   10.9214 C.ar        1 BAX      -0.0478
     12 O22       -18.9845   -5.0735    7.7948 O.3         1 BAX      -0.2564
     13 C24       -20.8754   -3.6108    8.3901 C.ar        1 BAX       0.0024
     14 C25       -21.5375   -2.3917    8.1643 C.ar        1 BAX       0.0057
     15 C27       -19.9173   -1.7415    6.5181 C.ar        1 BAX       0.1117
     16 C28       -19.2119   -2.9509    6.7432 C.ar        1 BAX       0.0183
     17 N30       -20.2623    0.3015    5.3789 N.am        1 BAX      -0.2874
     18 C31       -19.9729    1.3273    4.4328 C.3         1 BAX       0.0193
     19 C5        -14.8993   -7.9313   18.2801 C.ar        1 BAX       0.0592
     20 C6        -14.8069   -8.7181   17.0957 C.ar        1 BAX       0.0462
     21 C7        -13.8474   -9.8600   16.9879 C.3         1 BAX       0.3715
     22 F8        -13.9412  -10.6023   15.8344 F           1 BAX      -0.2224
     23 F9        -12.5548   -9.3972   17.0500 F           1 BAX      -0.2224
     24 F10       -14.0666  -10.7476   18.0147 F           1 BAX      -0.2224
     25 CL11      -13.8896   -8.1489   19.6298 Cl          1 BAX      -0.0539
     26 N12       -17.5172   -7.1402   15.1181 N.am        1 BAX      -0.2087
     27 N14       -18.2379   -6.6717   13.0657 N.am        1 BAX      -0.2199
     28 O15       -16.0419   -6.6613   13.5101 O.2         1 BAX      -0.3813
     29 C23       -19.6754   -3.8881    7.6916 C.ar        1 BAX       0.1379
     30 N26       -21.0442   -1.5224    7.2500 N.ar        1 BAX      -0.2925
     31 C29       -19.5291   -0.7902    5.5796 C.2         1 BAX       0.2205
     32 O32       -18.5069   -0.9609    4.9240 O.2         1 BAX      -0.3791
     33 H1        -15.6299   -8.9309   15.1478 H           1 BAX       0.0706
     34 H2        -17.4327   -5.8939   17.4117 H           1 BAX       0.0758
     35 H3        -15.9349   -6.3553   19.2376 H           1 BAX       0.0670
     36 H4        -16.9439   -4.6605   11.8093 H           1 BAX       0.0480
     37 H5        -17.3023   -3.9770    9.5277 H           1 BAX       0.0520
     38 H6        -20.0371   -7.1279    8.9956 H           1 BAX       0.0520
     39 H7        -19.7199   -7.8009   11.2890 H           1 BAX       0.0480
     40 H8        -21.2771   -4.2815    9.0445 H           1 BAX       0.0673
     41 H9        -22.3949   -2.1620    8.6671 H           1 BAX       0.0803
     42 H10       -18.3639   -3.1695    6.2109 H           1 BAX       0.0696
     43 H11       -21.0651    0.4105    5.9150 H           1 BAX       0.1844
     44 H12       -20.7399    2.1014    4.4904 H           1 BAX       0.0484
     45 H13       -19.9654    0.9161    3.4221 H           1 BAX       0.0484
     46 H14       -19.0032    1.7779    4.6504 H           1 BAX       0.0484
     47 H15       -18.4659   -7.1709   15.3267 H           1 BAX       0.2266
     48 H16       -19.0926   -6.9000   13.4624 H           1 BAX       0.2230
@<TRIPOS>BOND
     1     2     1  ar
     2     1    20  ar
     3     2     3  ar
     4    26     2   1
     5     3     4  ar
     6     4    19  ar
     7     5    26  am
     8    27     5  am
     9     5    28   2
    10     7     6  ar
    11    11     6  ar
    12     6    27   1
    13     8     7  ar
    14     9     8  ar
    15     9    10  ar
    16    12     9   1
    17    10    11  ar
    18    29    12   1
    19    14    13  ar
    20    29    13  ar
    21    30    14  ar
    22    15    16  ar
    23    15    30  ar
    24    31    15   1
    25    16    29  ar
    26    17    18   1
    27    17    31  am
    28    19    20  ar
    29    19    25   1
    30    20    21   1
    31    21    22   1
    32    21    23   1
    33    21    24   1
    34    31    32   2
    35     1    33   1
    36     3    34   1
    37     4    35   1
    38     7    36   1
    39     8    37   1
    40    10    38   1
    41    11    39   1
    42    13    40   1
    43    14    41   1
    44    16    42   1
    45    17    43   1
    46    18    44   1
    47    18    45   1
    48    18    46   1
    49    26    47   1
    50    27    48   1
@<TRIPOS>SUBSTRUCTURE
     1  BAX      1

