@<TRIPOS>MOLECULE
3gcs_ligand_041
    48    50
SMALL
GAST_HUCK
****
This file was generated by PARSER (from files_GN.cpp)

@<TRIPOS>ATOM
      1 C1        -14.8736   -8.9550   18.5702 C.ar        1 BAX      -0.0127
      2 C2        -14.7254   -7.5715   18.8232 C.ar        1 BAX       0.0959
      3 C3        -13.4677   -6.9812   18.6042 C.ar        1 BAX      -0.0108
      4 C4        -12.4098   -7.7370   18.0766 C.ar        1 BAX      -0.0291
      5 C13       -16.8161   -6.3573   18.8119 C.2         1 BAX       0.3148
      6 C16       -18.8445   -5.1415   19.3331 C.ar        1 BAX       0.0577
      7 C17       -20.0895   -5.7534   19.0445 C.ar        1 BAX      -0.0478
      8 C18       -21.2468   -4.9858   18.8435 C.ar        1 BAX      -0.0404
      9 C19       -21.2103   -3.5766   18.9473 C.ar        1 BAX       0.1047
     10 C20       -19.9649   -2.9766   19.2735 C.ar        1 BAX      -0.0404
     11 C21       -18.8038   -3.7381   19.4690 C.ar        1 BAX      -0.0478
     12 O22       -22.3800   -2.8684   18.7196 O.3         1 BAX      -0.2564
     13 C24       -22.8086   -0.8229   19.9234 C.ar        1 BAX       0.0024
     14 C25       -22.5951    0.5600   20.0425 C.ar        1 BAX       0.0057
     15 C27       -21.3620    0.6222   17.9801 C.ar        1 BAX       0.1117
     16 C28       -21.5754   -0.7734   17.8242 C.ar        1 BAX       0.0183
     17 N30       -20.5084    2.6827   17.2263 N.am        1 BAX      -0.2874
     18 C31       -19.8326    3.5733   16.3405 C.3         1 BAX       0.0193
     19 C5        -12.5740   -9.1032   17.7780 C.ar        1 BAX       0.0592
     20 C6        -13.8191   -9.7417   18.0363 C.ar        1 BAX       0.0462
     21 C7        -14.0250  -11.1949   17.7518 C.3         1 BAX       0.3715
     22 F8        -15.2756  -11.6762   18.0542 F           1 BAX      -0.2224
     23 F9        -13.8412  -11.4447   16.4139 F           1 BAX      -0.2224
     24 F10       -13.1417  -11.9569   18.4785 F           1 BAX      -0.2224
     25 CL11      -11.2274   -9.9020   17.1188 Cl          1 BAX      -0.0539
     26 N12       -15.7599   -6.8982   19.4065 N.am        1 BAX      -0.2087
     27 N14       -17.7163   -5.8224   19.6424 N.am        1 BAX      -0.2199
     28 O15       -16.9437   -6.3084   17.6017 O.2         1 BAX      -0.3813
     29 C23       -22.2880   -1.5002   18.7968 C.ar        1 BAX       0.1379
     30 N26       -21.8895    1.2178   19.0848 N.ar        1 BAX      -0.2925
     31 C29       -20.6484    1.3796   17.0601 C.2         1 BAX       0.2205
     32 O32       -20.1673    0.8430   16.0587 O.2         1 BAX      -0.3791
     33 H1        -15.7694   -9.3865   18.7920 H           1 BAX       0.0706
     34 H2        -13.3078   -5.9959   18.8343 H           1 BAX       0.0758
     35 H3        -11.5099   -7.2872   17.9059 H           1 BAX       0.0670
     36 H4        -20.1442   -6.7751   18.9983 H           1 BAX       0.0480
     37 H5        -22.1343   -5.4546   18.6185 H           1 BAX       0.0520
     38 H6        -19.8665   -1.9699   19.3688 H           1 BAX       0.0520
     39 H7        -17.9413   -3.2491   19.7030 H           1 BAX       0.0480
     40 H8        -23.2946   -1.3351   20.6606 H           1 BAX       0.0673
     41 H9        -22.9739    1.0799   20.8371 H           1 BAX       0.0803
     42 H10       -21.1328   -1.2837   17.0555 H           1 BAX       0.0696
     43 H11       -20.9062    3.0755   18.0212 H           1 BAX       0.1844
     44 H12       -19.8863    4.5827   16.7456 H           1 BAX       0.0484
     45 H13       -20.3062    3.5621   15.3569 H           1 BAX       0.0484
     46 H14       -18.7844    3.2861   16.2437 H           1 BAX       0.0484
     47 H15       -15.7945   -6.9368   20.3724 H           1 BAX       0.2266
     48 H16       -17.4474   -5.7827   20.5699 H           1 BAX       0.2230
@<TRIPOS>BOND
     1     2     1  ar
     2     1    20  ar
     3     2     3  ar
     4    26     2   1
     5     3     4  ar
     6     4    19  ar
     7     5    26  am
     8    27     5  am
     9     5    28   2
    10     7     6  ar
    11    11     6  ar
    12     6    27   1
    13     8     7  ar
    14     9     8  ar
    15     9    10  ar
    16    12     9   1
    17    10    11  ar
    18    29    12   1
    19    14    13  ar
    20    29    13  ar
    21    30    14  ar
    22    15    16  ar
    23    15    30  ar
    24    31    15   1
    25    16    29  ar
    26    17    18   1
    27    17    31  am
    28    19    20  ar
    29    19    25   1
    30    20    21   1
    31    21    22   1
    32    21    23   1
    33    21    24   1
    34    31    32   2
    35     1    33   1
    36     3    34   1
    37     4    35   1
    38     7    36   1
    39     8    37   1
    40    10    38   1
    41    11    39   1
    42    13    40   1
    43    14    41   1
    44    16    42   1
    45    17    43   1
    46    18    44   1
    47    18    45   1
    48    18    46   1
    49    26    47   1
    50    27    48   1
@<TRIPOS>SUBSTRUCTURE
     1  BAX      1

