@<TRIPOS>MOLECULE
3gcs_ligand_026
    48    50
SMALL
GAST_HUCK
****
This file was generated by PARSER (from files_GN.cpp)

@<TRIPOS>ATOM
      1 C1        -19.8741    8.1423   25.1466 C.ar        1 BAX      -0.0127
      2 C2        -18.8377    7.3388   24.6311 C.ar        1 BAX       0.0959
      3 C3        -17.5185    7.8246   24.6343 C.ar        1 BAX      -0.0108
      4 C4        -17.2460    9.1066   25.1411 C.ar        1 BAX      -0.0291
      5 C13       -19.7609    5.7904   23.0717 C.2         1 BAX       0.3148
      6 C16       -20.6942    3.9644   21.8390 C.ar        1 BAX       0.0577
      7 C17       -20.1080    4.0726   20.5594 C.ar        1 BAX      -0.0478
      8 C18       -20.7092    3.4524   19.4531 C.ar        1 BAX      -0.0404
      9 C19       -21.9315    2.7427   19.5947 C.ar        1 BAX       0.1047
     10 C20       -22.4969    2.6280   20.8809 C.ar        1 BAX      -0.0404
     11 C21       -21.8773    3.2164   21.9983 C.ar        1 BAX      -0.0478
     12 O22       -22.6048    2.1223   18.5607 O.3         1 BAX      -0.2564
     13 C24       -21.4151    2.1117   16.4874 C.ar        1 BAX       0.0024
     14 C25       -21.1025    2.7574   15.2808 C.ar        1 BAX       0.0057
     15 C27       -22.7579    4.4547   15.6850 C.ar        1 BAX       0.1117
     16 C28       -23.1170    3.8083   16.8944 C.ar        1 BAX       0.0183
     17 N30       -22.9656    6.2176   14.1225 N.am        1 BAX      -0.2874
     18 C31       -23.5101    7.4152   13.5713 C.3         1 BAX       0.0193
     19 C5        -18.2791    9.9031   25.6771 C.ar        1 BAX       0.0592
     20 C6        -19.6216    9.4267   25.6943 C.ar        1 BAX       0.0462
     21 C7        -20.7346   10.2310   26.2898 C.3         1 BAX       0.3715
     22 F8        -21.9703    9.6263   26.2667 F           1 BAX      -0.2224
     23 F9        -20.4684   10.4875   27.6131 F           1 BAX      -0.2224
     24 F10       -20.8831   11.4243   25.6243 F           1 BAX      -0.2224
     25 CL11      -17.8240   11.4197   26.2947 Cl          1 BAX      -0.0539
     26 N12       -19.1156    6.0848   24.1867 N.am        1 BAX      -0.2087
     27 N14       -20.1105    4.5215   22.9312 N.am        1 BAX      -0.2199
     28 O15       -20.0570    6.6450   22.2445 O.2         1 BAX      -0.3813
     29 C23       -22.4061    2.6656   17.3187 C.ar        1 BAX       0.1379
     30 N26       -21.7613    3.8932   14.9406 N.ar        1 BAX      -0.2925
     31 C29       -23.3578    5.6349   15.2498 C.2         1 BAX       0.2205
     32 O32       -24.2499    6.1511   15.9140 O.2         1 BAX      -0.3791
     33 H1        -20.8242    7.7644   25.1359 H           1 BAX       0.0706
     34 H2        -16.7563    7.2560   24.2575 H           1 BAX       0.0758
     35 H3        -16.2834    9.4519   25.1186 H           1 BAX       0.0670
     36 H4        -19.2286    4.5863   20.4352 H           1 BAX       0.0480
     37 H5        -20.2538    3.5261   18.5388 H           1 BAX       0.0520
     38 H6        -23.3714    2.1147   21.0068 H           1 BAX       0.0520
     39 H7        -22.3089    3.1270   22.9202 H           1 BAX       0.0480
     40 H8        -20.9016    1.2749   16.7749 H           1 BAX       0.0673
     41 H9        -20.3773    2.3855   14.6664 H           1 BAX       0.0803
     42 H10       -23.8560    4.1831   17.4945 H           1 BAX       0.0696
     43 H11       -22.2414    5.7989   13.6302 H           1 BAX       0.1844
     44 H12       -22.9905    7.6496   12.6415 H           1 BAX       0.0484
     45 H13       -23.3781    8.2465   14.2664 H           1 BAX       0.0484
     46 H14       -24.5727    7.2866   13.3556 H           1 BAX       0.0484
     47 H15       -18.8737    5.3411   24.7612 H           1 BAX       0.2266
     48 H16       -20.0093    3.9567   23.7142 H           1 BAX       0.2230
@<TRIPOS>BOND
     1     2     1  ar
     2     1    20  ar
     3     2     3  ar
     4    26     2   1
     5     3     4  ar
     6     4    19  ar
     7     5    26  am
     8    27     5  am
     9     5    28   2
    10     7     6  ar
    11    11     6  ar
    12     6    27   1
    13     8     7  ar
    14     9     8  ar
    15     9    10  ar
    16    12     9   1
    17    10    11  ar
    18    29    12   1
    19    14    13  ar
    20    29    13  ar
    21    30    14  ar
    22    15    16  ar
    23    15    30  ar
    24    31    15   1
    25    16    29  ar
    26    17    18   1
    27    17    31  am
    28    19    20  ar
    29    19    25   1
    30    20    21   1
    31    21    22   1
    32    21    23   1
    33    21    24   1
    34    31    32   2
    35     1    33   1
    36     3    34   1
    37     4    35   1
    38     7    36   1
    39     8    37   1
    40    10    38   1
    41    11    39   1
    42    13    40   1
    43    14    41   1
    44    16    42   1
    45    17    43   1
    46    18    44   1
    47    18    45   1
    48    18    46   1
    49    26    47   1
    50    27    48   1
@<TRIPOS>SUBSTRUCTURE
     1  BAX      1

