@<TRIPOS>MOLECULE
3gcs_ligand_011
    48    50
SMALL
GAST_HUCK
****
This file was generated by PARSER (from files_GN.cpp)

@<TRIPOS>ATOM
      1 C1        -15.6480   -8.4398   15.9701 C.ar        1 BAX      -0.0127
      2 C2        -16.5260   -7.3509   16.1554 C.ar        1 BAX       0.0959
      3 C3        -16.5707   -6.7015   17.4018 C.ar        1 BAX      -0.0108
      4 C4        -15.7398   -7.1269   18.4486 C.ar        1 BAX      -0.0291
      5 C13       -17.1345   -6.4250   14.0385 C.2         1 BAX       0.3148
      6 C16       -18.2043   -5.1685   12.3055 C.ar        1 BAX       0.0577
      7 C17       -18.6455   -3.8444   12.5029 C.ar        1 BAX      -0.0478
      8 C18       -18.7555   -2.9633   11.4121 C.ar        1 BAX      -0.0404
      9 C19       -18.4876   -3.4057   10.0924 C.ar        1 BAX       0.1047
     10 C20       -18.0386   -4.7282    9.9061 C.ar        1 BAX      -0.0404
     11 C21       -17.8904   -5.6051   11.0001 C.ar        1 BAX      -0.0478
     12 O22       -18.5862   -2.6150    8.9625 O.3         1 BAX      -0.2564
     13 C24       -20.9287   -2.0862    8.5814 C.ar        1 BAX       0.0024
     14 C25       -21.9555   -1.1284    8.6543 C.ar        1 BAX       0.0057
     15 C27       -20.4116    0.5800    9.3522 C.ar        1 BAX       0.1117
     16 C28       -19.3539   -0.3622    9.2797 C.ar        1 BAX       0.0183
     17 N30       -21.2379    2.7411    9.8509 N.am        1 BAX      -0.2874
     18 C31       -21.1578    4.0966   10.2904 C.3         1 BAX       0.0193
     19 C5        -14.8726   -8.2224   18.2712 C.ar        1 BAX       0.0592
     20 C6        -14.8199   -8.9090   17.0247 C.ar        1 BAX       0.0462
     21 C7        -13.9508  -10.1129   16.8320 C.3         1 BAX       0.3715
     22 F8        -13.9796  -10.6593   15.5685 F           1 BAX      -0.2224
     23 F9        -12.6378   -9.8000   17.0779 F           1 BAX      -0.2224
     24 F10       -14.3453  -11.1073   17.6924 F           1 BAX      -0.2224
     25 CL11      -13.9388   -8.6685   19.6168 Cl          1 BAX      -0.0539
     26 N12       -17.4150   -6.9815   15.2040 N.am        1 BAX      -0.2087
     27 N14       -18.1961   -6.0014   13.3786 N.am        1 BAX      -0.2199
     28 O15       -15.9861   -6.2168   13.6596 O.2         1 BAX      -0.3813
     29 C23       -19.6168   -1.7042    8.9316 C.ar        1 BAX       0.1379
     30 N26       -21.6629    0.1398    9.0353 N.ar        1 BAX      -0.2925
     31 C29       -20.2178    1.8967    9.7638 C.2         1 BAX       0.2205
     32 O32       -19.0951    2.2804   10.0720 O.2         1 BAX      -0.3791
     33 H1        -15.6568   -8.9135   15.0594 H           1 BAX       0.0706
     34 H2        -17.2050   -5.9121   17.5530 H           1 BAX       0.0758
     35 H3        -15.7847   -6.6404   19.3470 H           1 BAX       0.0670
     36 H4        -18.8859   -3.5164   13.4385 H           1 BAX       0.0480
     37 H5        -19.0548   -2.0054   11.5887 H           1 BAX       0.0520
     38 H6        -17.8286   -5.0673    8.9644 H           1 BAX       0.0520
     39 H7        -17.5927   -6.5733   10.8396 H           1 BAX       0.0480
     40 H8        -21.1368   -3.0482    8.3114 H           1 BAX       0.0673
     41 H9        -22.9197   -1.3854    8.4463 H           1 BAX       0.0803
     42 H10       -18.3955   -0.1000    9.5286 H           1 BAX       0.0696
     43 H11       -22.1164    2.4219    9.5983 H           1 BAX       0.1844
     44 H12       -22.1522    4.5458   10.2480 H           1 BAX       0.0484
     45 H13       -20.4882    4.6710    9.6456 H           1 BAX       0.0484
     46 H14       -20.7977    4.1445   11.3211 H           1 BAX       0.0484
     47 H15       -18.3539   -7.0023   15.4528 H           1 BAX       0.2266
     48 H16       -19.0427   -6.1322   13.8296 H           1 BAX       0.2230
@<TRIPOS>BOND
     1     2     1  ar
     2     1    20  ar
     3     2     3  ar
     4    26     2   1
     5     3     4  ar
     6     4    19  ar
     7     5    26  am
     8    27     5  am
     9     5    28   2
    10     7     6  ar
    11    11     6  ar
    12     6    27   1
    13     8     7  ar
    14     9     8  ar
    15     9    10  ar
    16    12     9   1
    17    10    11  ar
    18    29    12   1
    19    14    13  ar
    20    29    13  ar
    21    30    14  ar
    22    15    16  ar
    23    15    30  ar
    24    31    15   1
    25    16    29  ar
    26    17    18   1
    27    17    31  am
    28    19    20  ar
    29    19    25   1
    30    20    21   1
    31    21    22   1
    32    21    23   1
    33    21    24   1
    34    31    32   2
    35     1    33   1
    36     3    34   1
    37     4    35   1
    38     7    36   1
    39     8    37   1
    40    10    38   1
    41    11    39   1
    42    13    40   1
    43    14    41   1
    44    16    42   1
    45    17    43   1
    46    18    44   1
    47    18    45   1
    48    18    46   1
    49    26    47   1
    50    27    48   1
@<TRIPOS>SUBSTRUCTURE
     1  BAX      1

