@<TRIPOS>MOLECULE
3gcs_ligand_045
    48    50
SMALL
GAST_HUCK
****
This file was generated by PARSER (from files_GN.cpp)

@<TRIPOS>ATOM
      1 C1        -16.4684   -7.7254    6.5535 C.ar        1 BAX      -0.0127
      2 C2        -15.7009   -6.5627    6.7969 C.ar        1 BAX       0.0959
      3 C3        -15.5373   -5.6325    5.7526 C.ar        1 BAX      -0.0108
      4 C4        -16.1715   -5.8246    4.5177 C.ar        1 BAX      -0.0291
      5 C13       -15.3491   -6.5642    9.2102 C.2         1 BAX       0.3148
      6 C16       -14.4863   -6.2428   11.4619 C.ar        1 BAX       0.0577
      7 C17       -15.6623   -6.0759   12.2323 C.ar        1 BAX      -0.0478
      8 C18       -15.6199   -6.1840   13.6349 C.ar        1 BAX      -0.0404
      9 C19       -14.3991   -6.4530   14.2844 C.ar        1 BAX       0.1047
     10 C20       -13.2113   -6.5437   13.5302 C.ar        1 BAX      -0.0404
     11 C21       -13.2534   -6.4239   12.1299 C.ar        1 BAX      -0.0478
     12 O22       -14.3871   -6.6425   15.6399 O.3         1 BAX      -0.2564
     13 C24       -14.1306   -9.1126   15.3856 C.ar        1 BAX       0.0024
     14 C25       -13.9367  -10.3401   16.0312 C.ar        1 BAX       0.0057
     15 C27       -13.9249   -9.2688   18.1786 C.ar        1 BAX       0.1117
     16 C28       -14.1019   -8.0094   17.5500 C.ar        1 BAX       0.0183
     17 N30       -13.6801  -10.6515   20.0647 N.am        1 BAX      -0.2874
     18 C31       -13.6350  -10.9914   21.4450 C.3         1 BAX       0.0193
     19 C5        -16.9579   -6.9701    4.2875 C.ar        1 BAX       0.0592
     20 C6        -17.1051   -7.9566    5.3049 C.ar        1 BAX       0.0462
     21 C7        -17.8927   -9.2068    5.0648 C.3         1 BAX       0.3715
     22 F8        -17.9259  -10.0886    6.1200 F           1 BAX      -0.2224
     23 F9        -19.2013   -8.8950    4.7855 F           1 BAX      -0.2224
     24 F10       -17.3656   -9.9069    4.0055 F           1 BAX      -0.2224
     25 CL11      -17.6911   -7.0862    2.7581 Cl          1 BAX      -0.0539
     26 N12       -15.0274   -6.3012    7.9544 N.am        1 BAX      -0.2087
     27 N14       -14.4517   -6.1651   10.0994 N.am        1 BAX      -0.2199
     28 O15       -16.3953   -7.1199    9.5211 O.2         1 BAX      -0.3813
     29 C23       -14.2038   -7.9169   16.1447 C.ar        1 BAX       0.1379
     30 N26       -13.8480  -10.3693   17.3794 N.ar        1 BAX      -0.2925
     31 C29       -13.8449   -9.4342   19.5582 C.2         1 BAX       0.2205
     32 O32       -13.9270   -8.4697   20.3070 O.2         1 BAX      -0.3791
     33 H1        -16.5388   -8.4232    7.2949 H           1 BAX       0.0706
     34 H2        -14.9651   -4.7945    5.8893 H           1 BAX       0.0758
     35 H3        -16.0484   -5.1210    3.7842 H           1 BAX       0.0670
     36 H4        -16.5560   -5.8628   11.7818 H           1 BAX       0.0480
     37 H5        -16.4804   -6.0831   14.1796 H           1 BAX       0.0520
     38 H6        -12.3194   -6.7176   14.0014 H           1 BAX       0.0520
     39 H7        -12.3787   -6.4992   11.6041 H           1 BAX       0.0480
     40 H8        -14.2132   -9.1128   14.3691 H           1 BAX       0.0673
     41 H9        -13.8792  -11.2027   15.4894 H           1 BAX       0.0803
     42 H10       -14.1607   -7.1544   18.1115 H           1 BAX       0.0696
     43 H11       -13.5990  -11.3848   19.4367 H           1 BAX       0.1844
     44 H12       -13.3897  -12.0483   21.5471 H           1 BAX       0.0484
     45 H13       -14.6094  -10.8152   21.9017 H           1 BAX       0.0484
     46 H14       -12.8718  -10.4131   21.9658 H           1 BAX       0.0484
     47 H15       -14.2302   -5.7587    7.8510 H           1 BAX       0.2266
     48 H16       -13.6194   -5.8353    9.7229 H           1 BAX       0.2230
@<TRIPOS>BOND
     1     2     1  ar
     2     1    20  ar
     3     2     3  ar
     4    26     2   1
     5     3     4  ar
     6     4    19  ar
     7     5    26  am
     8    27     5  am
     9     5    28   2
    10     7     6  ar
    11    11     6  ar
    12     6    27   1
    13     8     7  ar
    14     9     8  ar
    15     9    10  ar
    16    12     9   1
    17    10    11  ar
    18    29    12   1
    19    14    13  ar
    20    29    13  ar
    21    30    14  ar
    22    15    16  ar
    23    15    30  ar
    24    31    15   1
    25    16    29  ar
    26    17    18   1
    27    17    31  am
    28    19    20  ar
    29    19    25   1
    30    20    21   1
    31    21    22   1
    32    21    23   1
    33    21    24   1
    34    31    32   2
    35     1    33   1
    36     3    34   1
    37     4    35   1
    38     7    36   1
    39     8    37   1
    40    10    38   1
    41    11    39   1
    42    13    40   1
    43    14    41   1
    44    16    42   1
    45    17    43   1
    46    18    44   1
    47    18    45   1
    48    18    46   1
    49    26    47   1
    50    27    48   1
@<TRIPOS>SUBSTRUCTURE
     1  BAX      1

