@<TRIPOS>MOLECULE
3gcs_ligand_015
    48    50
SMALL
GAST_HUCK
****
This file was generated by PARSER (from files_GN.cpp)

@<TRIPOS>ATOM
      1 C1        -20.5661    7.6243   25.7019 C.ar        1 BAX      -0.0127
      2 C2        -19.5357    7.3594   24.7815 C.ar        1 BAX       0.0959
      3 C3        -18.5695    8.3457   24.5140 C.ar        1 BAX      -0.0108
      4 C4        -18.6390    9.5843   25.1736 C.ar        1 BAX      -0.0291
      5 C13       -19.9751    5.7204   23.0981 C.2         1 BAX       0.3148
      6 C16       -20.7705    3.7221   21.9912 C.ar        1 BAX       0.0577
      7 C17       -20.5955    3.9098   20.6010 C.ar        1 BAX      -0.0478
      8 C18       -21.3153    3.1201   19.6813 C.ar        1 BAX      -0.0404
      9 C19       -22.2100    2.1232   20.1308 C.ar        1 BAX       0.1047
     10 C20       -22.4109    1.9661   21.5186 C.ar        1 BAX      -0.0404
     11 C21       -21.6731    2.7354   22.4334 C.ar        1 BAX      -0.0478
     12 O22       -22.8824    1.3561   19.2074 O.3         1 BAX      -0.2564
     13 C24       -23.9007   -0.7296   19.8308 C.ar        1 BAX       0.0024
     14 C25       -23.7894   -2.1147   20.0287 C.ar        1 BAX       0.0057
     15 C27       -21.4699   -2.0798   19.3957 C.ar        1 BAX       0.1117
     16 C28       -21.5639   -0.6853   19.1646 C.ar        1 BAX       0.0183
     17 N30       -20.2435   -4.0927   19.4900 N.am        1 BAX      -0.2874
     18 C31       -19.0938   -4.9235   19.3704 C.3         1 BAX       0.0193
     19 C5        -19.6759    9.8558   26.0901 C.ar        1 BAX       0.0592
     20 C6        -20.6725    8.8760   26.3584 C.ar        1 BAX       0.0462
     21 C7        -21.7935    9.1240   27.3193 C.3         1 BAX       0.3715
     22 F8        -22.6819    8.0820   27.4668 F           1 BAX      -0.2224
     23 F9        -21.2968    9.3785   28.5766 F           1 BAX      -0.2224
     24 F10       -22.5457   10.1999   26.9092 F           1 BAX      -0.2224
     25 CL11      -19.6580   11.3834   26.8328 Cl          1 BAX      -0.0539
     26 N12       -19.4471    6.1160   24.2426 N.am        1 BAX      -0.2087
     27 N14       -20.0866    4.4126   22.9446 N.am        1 BAX      -0.2199
     28 O15       -20.4524    6.5311   22.2968 O.2         1 BAX      -0.3813
     29 C23       -22.7794   -0.0020   19.3957 C.ar        1 BAX       0.1379
     30 N26       -22.5975   -2.7252   19.8094 N.ar        1 BAX      -0.2925
     31 C29       -20.2860   -2.7912   19.2292 C.2         1 BAX       0.2205
     32 O32       -19.2661   -2.2149   18.8656 O.2         1 BAX      -0.3791
     33 H1        -21.2450    6.8846   25.8938 H           1 BAX       0.0706
     34 H2        -17.8039    8.1514   23.8662 H           1 BAX       0.0758
     35 H3        -17.9170   10.2832   24.9862 H           1 BAX       0.0670
     36 H4        -19.9219    4.5894   20.2484 H           1 BAX       0.0480
     37 H5        -21.1650    3.2526   18.6710 H           1 BAX       0.0520
     38 H6        -23.0659    1.2663   21.8649 H           1 BAX       0.0520
     39 H7        -21.8113    2.5789   23.4368 H           1 BAX       0.0480
     40 H8        -24.7885   -0.2593   20.0065 H           1 BAX       0.0673
     41 H9        -24.5885   -2.6656   20.3435 H           1 BAX       0.0803
     42 H10       -20.7495   -0.1514   18.8510 H           1 BAX       0.0696
     43 H11       -21.0608   -4.5164   19.7870 H           1 BAX       0.1844
     44 H12       -19.3631   -5.9439   19.6422 H           1 BAX       0.0484
     45 H13       -18.3032   -4.5783   20.0428 H           1 BAX       0.0484
     46 H14       -18.7238   -4.9165   18.3423 H           1 BAX       0.0484
     47 H15       -19.1816    5.4088   24.8559 H           1 BAX       0.2266
     48 H16       -19.7653    3.8817   23.6887 H           1 BAX       0.2230
@<TRIPOS>BOND
     1     2     1  ar
     2     1    20  ar
     3     2     3  ar
     4    26     2   1
     5     3     4  ar
     6     4    19  ar
     7     5    26  am
     8    27     5  am
     9     5    28   2
    10     7     6  ar
    11    11     6  ar
    12     6    27   1
    13     8     7  ar
    14     9     8  ar
    15     9    10  ar
    16    12     9   1
    17    10    11  ar
    18    29    12   1
    19    14    13  ar
    20    29    13  ar
    21    30    14  ar
    22    15    16  ar
    23    15    30  ar
    24    31    15   1
    25    16    29  ar
    26    17    18   1
    27    17    31  am
    28    19    20  ar
    29    19    25   1
    30    20    21   1
    31    21    22   1
    32    21    23   1
    33    21    24   1
    34    31    32   2
    35     1    33   1
    36     3    34   1
    37     4    35   1
    38     7    36   1
    39     8    37   1
    40    10    38   1
    41    11    39   1
    42    13    40   1
    43    14    41   1
    44    16    42   1
    45    17    43   1
    46    18    44   1
    47    18    45   1
    48    18    46   1
    49    26    47   1
    50    27    48   1
@<TRIPOS>SUBSTRUCTURE
     1  BAX      1

