@<TRIPOS>MOLECULE
3gcs_ligand_018
    48    50
SMALL
GAST_HUCK
****
This file was generated by PARSER (from files_GN.cpp)

@<TRIPOS>ATOM
      1 C1        -21.6975   -1.4917   19.0724 C.ar        1 BAX      -0.0127
      2 C2        -20.9270   -1.2666   17.9029 C.ar        1 BAX       0.0959
      3 C3        -20.2938   -2.3764   17.3114 C.ar        1 BAX      -0.0108
      4 C4        -20.4028   -3.6580   17.8726 C.ar        1 BAX      -0.0291
      5 C13       -21.1416    1.1635   17.5493 C.2         1 BAX       0.3148
      6 C16       -21.1120    3.4426   16.8219 C.ar        1 BAX       0.0577
      7 C17       -22.4721    3.8326   16.8724 C.ar        1 BAX      -0.0478
      8 C18       -22.8184    5.1815   17.0440 C.ar        1 BAX      -0.0404
      9 C19       -21.8173    6.1597   17.2000 C.ar        1 BAX       0.1047
     10 C20       -20.4587    5.7859   17.1002 C.ar        1 BAX      -0.0404
     11 C21       -20.1111    4.4334   16.9052 C.ar        1 BAX      -0.0478
     12 O22       -22.1833    7.4414   17.5215 O.3         1 BAX      -0.2564
     13 C24       -21.8270    9.0789   19.2133 C.ar        1 BAX       0.0024
     14 C25       -21.8170    9.4643   20.5656 C.ar        1 BAX       0.0057
     15 C27       -22.4965    7.2730   21.2660 C.ar        1 BAX       0.1117
     16 C28       -22.5359    6.8656   19.9103 C.ar        1 BAX       0.0183
     17 N30       -22.7398    6.8347   23.5781 N.am        1 BAX      -0.2874
     18 C31       -22.9939    6.0400   24.7346 C.3         1 BAX       0.0193
     19 C5        -21.1517   -3.8639   19.0469 C.ar        1 BAX       0.0592
     20 C6        -21.8257   -2.7753   19.6662 C.ar        1 BAX       0.0462
     21 C7        -22.6521   -2.9686   20.9013 C.3         1 BAX       0.3715
     22 F8        -23.2703   -1.8382   21.3823 F           1 BAX      -0.2224
     23 F9        -23.6595   -3.8740   20.6680 F           1 BAX      -0.2224
     24 F10       -21.8651   -3.4301   21.9275 F           1 BAX      -0.2224
     25 CL11      -21.1911   -5.4505   19.6546 Cl          1 BAX      -0.0539
     26 N12       -20.7541   -0.0650   17.2550 N.am        1 BAX      -0.2087
     27 N14       -20.7767    2.1222   16.7123 N.am        1 BAX      -0.2199
     28 O15       -21.7410    1.4436   18.5880 O.2         1 BAX      -0.3813
     29 C23       -22.1727    7.7569   18.8682 C.ar        1 BAX       0.1379
     30 N26       -22.1401    8.5614   21.5232 N.ar        1 BAX      -0.2925
     31 C29       -22.7907    6.4079   22.3208 C.2         1 BAX       0.2205
     32 O32       -23.0901    5.2423   22.0942 O.2         1 BAX      -0.3791
     33 H1        -22.1893   -0.7119   19.4976 H           1 BAX       0.0706
     34 H2        -19.7396   -2.2616   16.4585 H           1 BAX       0.0758
     35 H3        -19.9303   -4.4414   17.4153 H           1 BAX       0.0670
     36 H4        -23.2126    3.1287   16.8049 H           1 BAX       0.0480
     37 H5        -23.8049    5.4429   17.1187 H           1 BAX       0.0520
     38 H6        -19.7263    6.4920   17.2091 H           1 BAX       0.0520
     39 H7        -19.1220    4.1714   16.8736 H           1 BAX       0.0480
     40 H8        -21.5878    9.7615   18.4897 H           1 BAX       0.0673
     41 H9        -21.5696   10.4164   20.8352 H           1 BAX       0.0803
     42 H10       -22.8146    5.9112   19.6813 H           1 BAX       0.0696
     43 H11       -22.5066    7.7634   23.7260 H           1 BAX       0.1844
     44 H12       -22.8687    6.6553   25.6262 H           1 BAX       0.0484
     45 H13       -22.2895    5.2069   24.7845 H           1 BAX       0.0484
     46 H14       -24.0147    5.6522   24.7167 H           1 BAX       0.0484
     47 H15       -20.2589   -0.1262   16.4214 H           1 BAX       0.2266
     48 H16       -20.2014    1.8586   15.9714 H           1 BAX       0.2230
@<TRIPOS>BOND
     1     2     1  ar
     2     1    20  ar
     3     2     3  ar
     4    26     2   1
     5     3     4  ar
     6     4    19  ar
     7     5    26  am
     8    27     5  am
     9     5    28   2
    10     7     6  ar
    11    11     6  ar
    12     6    27   1
    13     8     7  ar
    14     9     8  ar
    15     9    10  ar
    16    12     9   1
    17    10    11  ar
    18    29    12   1
    19    14    13  ar
    20    29    13  ar
    21    30    14  ar
    22    15    16  ar
    23    15    30  ar
    24    31    15   1
    25    16    29  ar
    26    17    18   1
    27    17    31  am
    28    19    20  ar
    29    19    25   1
    30    20    21   1
    31    21    22   1
    32    21    23   1
    33    21    24   1
    34    31    32   2
    35     1    33   1
    36     3    34   1
    37     4    35   1
    38     7    36   1
    39     8    37   1
    40    10    38   1
    41    11    39   1
    42    13    40   1
    43    14    41   1
    44    16    42   1
    45    17    43   1
    46    18    44   1
    47    18    45   1
    48    18    46   1
    49    26    47   1
    50    27    48   1
@<TRIPOS>SUBSTRUCTURE
     1  BAX      1

