@<TRIPOS>MOLECULE
3gcs_ligand_030
    48    50
SMALL
GAST_HUCK
****
This file was generated by PARSER (from files_GN.cpp)

@<TRIPOS>ATOM
      1 C1        -20.4802    7.9144   25.9846 C.ar        1 BAX      -0.0127
      2 C2        -19.4398    7.5969   25.0827 C.ar        1 BAX       0.0959
      3 C3        -18.4367    8.5629   24.8443 C.ar        1 BAX      -0.0108
      4 C4        -18.4972    9.8223   25.4586 C.ar        1 BAX      -0.0291
      5 C13       -19.6655    6.0960   23.2012 C.2         1 BAX       0.3148
      6 C16       -20.2336    4.2716   21.7222 C.ar        1 BAX       0.0577
      7 C17       -19.5074    4.4042   20.5165 C.ar        1 BAX      -0.0478
      8 C18       -19.9882    3.8438   19.3194 C.ar        1 BAX      -0.0404
      9 C19       -21.2228    3.1570   19.3024 C.ar        1 BAX       0.1047
     10 C20       -21.9360    2.9908   20.5059 C.ar        1 BAX      -0.0404
     11 C21       -21.4413    3.5337   21.7075 C.ar        1 BAX      -0.0478
     12 O22       -21.7052    2.5490   18.1677 O.3         1 BAX      -0.2564
     13 C24       -23.1404    4.1406   17.0160 C.ar        1 BAX       0.0024
     14 C25       -23.3171    5.0066   15.9238 C.ar        1 BAX       0.0057
     15 C27       -21.1470    4.4408   15.0453 C.ar        1 BAX       0.1117
     16 C28       -20.9537    3.5438   16.1291 C.ar        1 BAX       0.0183
     17 N30       -18.9686    4.1791   14.1207 N.am        1 BAX      -0.2874
     18 C31       -17.8957    4.4656   13.2235 C.3         1 BAX       0.0193
     19 C5        -19.5589   10.1452   26.3267 C.ar        1 BAX       0.0592
     20 C6        -20.5718    9.1822   26.6131 C.ar        1 BAX       0.0462
     21 C7        -21.7101    9.4959   27.5346 C.3         1 BAX       0.3715
     22 F8        -22.6065    8.4666   27.7387 F           1 BAX      -0.2224
     23 F9        -21.2383    9.8303   28.7854 F           1 BAX      -0.2224
     24 F10       -22.4488   10.5489   27.0373 F           1 BAX      -0.2224
     25 CL11      -19.5471   11.7094   26.9849 Cl          1 BAX      -0.0539
     26 N12       -19.4480    6.3700   24.4807 N.am        1 BAX      -0.2087
     27 N14       -19.8137    4.8153   22.9070 N.am        1 BAX      -0.2199
     28 O15       -19.9110    6.9791   22.3849 O.2         1 BAX      -0.3813
     29 C23       -21.9381    3.4125   17.1281 C.ar        1 BAX       0.1379
     30 N26       -22.3282    5.1217   14.9995 N.ar        1 BAX      -0.2925
     31 C29       -20.1966    4.6855   14.0580 C.2         1 BAX       0.2205
     32 O32       -20.4764    5.4496   13.1379 O.2         1 BAX      -0.3791
     33 H1        -21.1992    7.2067   26.1571 H           1 BAX       0.0706
     34 H2        -17.6508    8.3468   24.2265 H           1 BAX       0.0758
     35 H3        -17.7629   10.5064   25.2622 H           1 BAX       0.0670
     36 H4        -18.6071    4.8909   20.5116 H           1 BAX       0.0480
     37 H5        -19.4317    3.9377   18.4664 H           1 BAX       0.0520
     38 H6        -22.8167    2.4685   20.5027 H           1 BAX       0.0520
     39 H7        -21.9792    3.4028   22.5683 H           1 BAX       0.0480
     40 H8        -23.8701    4.0501   17.7258 H           1 BAX       0.0673
     41 H9        -24.1749    5.5504   15.8199 H           1 BAX       0.0803
     42 H10       -20.1013    2.9869   16.2075 H           1 BAX       0.0696
     43 H11       -18.7677    3.5810   14.8549 H           1 BAX       0.1844
     44 H12       -17.0112    3.9060   13.5286 H           1 BAX       0.0484
     45 H13       -17.6627    5.5296   13.2512 H           1 BAX       0.0484
     46 H14       -18.1602    4.1738   12.2046 H           1 BAX       0.0484
     47 H15       -19.4099    5.5973   25.0633 H           1 BAX       0.2266
     48 H16       -19.7039    4.2036   23.6539 H           1 BAX       0.2230
@<TRIPOS>BOND
     1     2     1  ar
     2     1    20  ar
     3     2     3  ar
     4    26     2   1
     5     3     4  ar
     6     4    19  ar
     7     5    26  am
     8    27     5  am
     9     5    28   2
    10     7     6  ar
    11    11     6  ar
    12     6    27   1
    13     8     7  ar
    14     9     8  ar
    15     9    10  ar
    16    12     9   1
    17    10    11  ar
    18    29    12   1
    19    14    13  ar
    20    29    13  ar
    21    30    14  ar
    22    15    16  ar
    23    15    30  ar
    24    31    15   1
    25    16    29  ar
    26    17    18   1
    27    17    31  am
    28    19    20  ar
    29    19    25   1
    30    20    21   1
    31    21    22   1
    32    21    23   1
    33    21    24   1
    34    31    32   2
    35     1    33   1
    36     3    34   1
    37     4    35   1
    38     7    36   1
    39     8    37   1
    40    10    38   1
    41    11    39   1
    42    13    40   1
    43    14    41   1
    44    16    42   1
    45    17    43   1
    46    18    44   1
    47    18    45   1
    48    18    46   1
    49    26    47   1
    50    27    48   1
@<TRIPOS>SUBSTRUCTURE
     1  BAX      1

