@<TRIPOS>MOLECULE
3gcs_ligand_037
    48    50
SMALL
GAST_HUCK
****
This file was generated by PARSER (from files_GN.cpp)

@<TRIPOS>ATOM
      1 C1        -12.0110   -4.3652    8.2020 C.ar        1 BAX      -0.0127
      2 C2        -10.9966   -4.5672    9.1640 C.ar        1 BAX       0.0959
      3 C3         -9.6534   -4.4132    8.7598 C.ar        1 BAX      -0.0108
      4 C4         -9.3349   -4.1285    7.4234 C.ar        1 BAX      -0.0291
      5 C13       -12.2564   -5.4457   11.0563 C.2         1 BAX       0.3148
      6 C16       -13.0681   -6.1088   13.2792 C.ar        1 BAX       0.0577
      7 C17       -12.5382   -6.3912   14.5584 C.ar        1 BAX      -0.0478
      8 C18       -13.3513   -6.8497   15.5996 C.ar        1 BAX      -0.0404
      9 C19       -14.7344   -7.0641   15.3864 C.ar        1 BAX       0.1047
     10 C20       -15.2677   -6.7988   14.1120 C.ar        1 BAX      -0.0404
     11 C21       -14.4434   -6.3434   13.0629 C.ar        1 BAX      -0.0478
     12 O22       -15.6342   -7.4482   16.3588 O.3         1 BAX      -0.2564
     13 C24       -15.2548   -7.8435   18.6908 C.ar        1 BAX       0.0024
     14 C25       -14.8282   -8.6998   19.7137 C.ar        1 BAX       0.0057
     15 C27       -14.2683  -10.4226   18.1303 C.ar        1 BAX       0.1117
     16 C28       -14.7187   -9.5879   17.0778 C.ar        1 BAX       0.0183
     17 N30       -13.1611  -12.3655   18.8936 N.am        1 BAX      -0.2874
     18 C31       -12.6055  -13.6797   18.8168 C.3         1 BAX       0.0193
     19 C5        -10.3524   -3.9765    6.4613 C.ar        1 BAX       0.0592
     20 C6        -11.7221   -4.0801    6.8432 C.ar        1 BAX       0.0462
     21 C7        -12.8323   -3.8910    5.8514 C.3         1 BAX       0.3715
     22 F8        -14.1051   -3.9994    6.3700 F           1 BAX      -0.2224
     23 F9        -12.7667   -2.6389    5.2852 F           1 BAX      -0.2224
     24 F10       -12.7536   -4.8361    4.8551 F           1 BAX      -0.2224
     25 CL11       -9.8515   -3.6746    4.8636 Cl          1 BAX      -0.0539
     26 N12       -11.2125   -4.8588   10.4808 N.am        1 BAX      -0.2087
     27 N14       -12.1861   -5.5696   12.3737 N.am        1 BAX      -0.2199
     28 O15       -13.1803   -5.9107   10.4088 O.2         1 BAX      -0.3813
     29 C23       -15.1968   -8.2881   17.3581 C.ar        1 BAX       0.1379
     30 N26       -14.3548   -9.9339   19.4008 N.ar        1 BAX      -0.2925
     31 C29       -13.7422  -11.6911   17.9082 C.2         1 BAX       0.2205
     32 O32       -13.8066  -12.1929   16.7936 O.2         1 BAX      -0.3791
     33 H1        -12.9828   -4.4088    8.5071 H           1 BAX       0.0706
     34 H2         -8.8950   -4.5287    9.4351 H           1 BAX       0.0758
     35 H3         -8.3507   -4.0361    7.1593 H           1 BAX       0.0670
     36 H4        -11.5488   -6.2372   14.7364 H           1 BAX       0.0480
     37 H5        -12.9379   -7.0325   16.5198 H           1 BAX       0.0520
     38 H6        -16.2692   -6.9332   13.9464 H           1 BAX       0.0520
     39 H7        -14.8843   -6.1376   12.1670 H           1 BAX       0.0480
     40 H8        -15.5757   -6.8954   18.9071 H           1 BAX       0.0673
     41 H9        -14.8558   -8.3973   20.6863 H           1 BAX       0.0803
     42 H10       -14.6614   -9.8912   16.1027 H           1 BAX       0.0696
     43 H11       -13.1214  -11.9335   19.7598 H           1 BAX       0.1844
     44 H12       -12.2260  -13.9609   19.8024 H           1 BAX       0.0484
     45 H13       -11.7825  -13.7116   18.1016 H           1 BAX       0.0484
     46 H14       -13.3657  -14.4076   18.5288 H           1 BAX       0.0484
     47 H15       -10.4797   -4.6527   11.0815 H           1 BAX       0.2266
     48 H16       -11.3550   -5.2454   12.7610 H           1 BAX       0.2230
@<TRIPOS>BOND
     1     2     1  ar
     2     1    20  ar
     3     2     3  ar
     4    26     2   1
     5     3     4  ar
     6     4    19  ar
     7     5    26  am
     8    27     5  am
     9     5    28   2
    10     7     6  ar
    11    11     6  ar
    12     6    27   1
    13     8     7  ar
    14     9     8  ar
    15     9    10  ar
    16    12     9   1
    17    10    11  ar
    18    29    12   1
    19    14    13  ar
    20    29    13  ar
    21    30    14  ar
    22    15    16  ar
    23    15    30  ar
    24    31    15   1
    25    16    29  ar
    26    17    18   1
    27    17    31  am
    28    19    20  ar
    29    19    25   1
    30    20    21   1
    31    21    22   1
    32    21    23   1
    33    21    24   1
    34    31    32   2
    35     1    33   1
    36     3    34   1
    37     4    35   1
    38     7    36   1
    39     8    37   1
    40    10    38   1
    41    11    39   1
    42    13    40   1
    43    14    41   1
    44    16    42   1
    45    17    43   1
    46    18    44   1
    47    18    45   1
    48    18    46   1
    49    26    47   1
    50    27    48   1
@<TRIPOS>SUBSTRUCTURE
     1  BAX      1

