@<TRIPOS>MOLECULE
3gcs_ligand_016
    48    50
SMALL
GAST_HUCK
****
This file was generated by PARSER (from files_GN.cpp)

@<TRIPOS>ATOM
      1 C1        -16.5683   -7.5636   18.3505 C.ar        1 BAX      -0.0127
      2 C2        -16.0054   -6.6037   17.4848 C.ar        1 BAX       0.0959
      3 C3        -14.6218   -6.3496   17.5465 C.ar        1 BAX      -0.0108
      4 C4        -13.8129   -7.0353   18.4630 C.ar        1 BAX      -0.0291
      5 C13       -17.1868   -6.2747   15.4316 C.2         1 BAX       0.3148
      6 C16       -18.4477   -5.4850   13.5066 C.ar        1 BAX       0.0577
      7 C17       -17.8598   -6.1949   12.4352 C.ar        1 BAX      -0.0478
      8 C18       -18.4760   -6.2311   11.1683 C.ar        1 BAX      -0.0404
      9 C19       -19.6877   -5.5499   10.9235 C.ar        1 BAX       0.1047
     10 C20       -20.2497   -4.8076   11.9956 C.ar        1 BAX      -0.0404
     11 C21       -19.6405   -4.7757   13.2596 C.ar        1 BAX      -0.0478
     12 O22       -20.2126   -5.6891    9.6487 O.3         1 BAX      -0.2564
     13 C24       -21.2719   -3.8574    8.5205 C.ar        1 BAX       0.0024
     14 C25       -22.4392   -3.1139    8.2787 C.ar        1 BAX       0.0057
     15 C27       -23.7577   -4.6454    9.5776 C.ar        1 BAX       0.1117
     16 C28       -22.6061   -5.4381    9.8049 C.ar        1 BAX       0.0183
     17 N30       -25.9887   -4.0585   10.0708 N.am        1 BAX      -0.2874
     18 C31       -27.2512   -4.1700   10.7212 C.3         1 BAX       0.0193
     19 C5        -14.3770   -7.9868   19.3331 C.ar        1 BAX       0.0592
     20 C6        -15.7706   -8.2792   19.2808 C.ar        1 BAX       0.0462
     21 C7        -16.3819   -9.3289   20.1493 C.3         1 BAX       0.3715
     22 F8        -17.7359   -9.5107   19.9952 F           1 BAX      -0.2224
     23 F9        -15.7989  -10.5365   19.8631 F           1 BAX      -0.2224
     24 F10       -16.1894   -9.0404   21.4775 F           1 BAX      -0.2224
     25 CL11      -13.3103   -8.7426   20.4132 Cl          1 BAX      -0.0539
     26 N12       -16.7948   -5.8897   16.6339 N.am        1 BAX      -0.2087
     27 N14       -17.9129   -5.3906   14.7623 N.am        1 BAX      -0.2199
     28 O15       -16.9176   -7.3843   14.9919 O.2         1 BAX      -0.3813
     29 C23       -21.3535   -5.0152    9.3134 C.ar        1 BAX       0.1379
     30 N26       -23.6162   -3.5194    8.8187 N.ar        1 BAX      -0.2925
     31 C29       -24.9977   -4.9404   10.1439 C.2         1 BAX       0.2205
     32 O32       -25.1613   -5.9892   10.7582 O.2         1 BAX      -0.3791
     33 H1        -17.5738   -7.7317   18.2926 H           1 BAX       0.0706
     34 H2        -14.1915   -5.6617   16.9243 H           1 BAX       0.0758
     35 H3        -12.8054   -6.8351   18.4789 H           1 BAX       0.0670
     36 H4        -16.9643   -6.6707   12.5569 H           1 BAX       0.0480
     37 H5        -18.0288   -6.7586   10.4137 H           1 BAX       0.0520
     38 H6        -21.1186   -4.2811   11.8691 H           1 BAX       0.0520
     39 H7        -20.0889   -4.2382   14.0105 H           1 BAX       0.0480
     40 H8        -20.3737   -3.5395    8.1441 H           1 BAX       0.0673
     41 H9        -22.4068   -2.2549    7.7224 H           1 BAX       0.0803
     42 H10       -22.6520   -6.2771   10.3855 H           1 BAX       0.0696
     43 H11       -25.8230   -3.2426    9.5700 H           1 BAX       0.1844
     44 H12       -27.8488   -3.2950   10.4750 H           1 BAX       0.0484
     45 H13       -27.1074   -4.2053   11.8011 H           1 BAX       0.0484
     46 H14       -27.7794   -5.0645   10.3909 H           1 BAX       0.0484
     47 H15       -17.0471   -4.9930   16.9104 H           1 BAX       0.2266
     48 H16       -18.1284   -4.5829   15.2541 H           1 BAX       0.2230
@<TRIPOS>BOND
     1     2     1  ar
     2     1    20  ar
     3     2     3  ar
     4    26     2   1
     5     3     4  ar
     6     4    19  ar
     7     5    26  am
     8    27     5  am
     9     5    28   2
    10     7     6  ar
    11    11     6  ar
    12     6    27   1
    13     8     7  ar
    14     9     8  ar
    15     9    10  ar
    16    12     9   1
    17    10    11  ar
    18    29    12   1
    19    14    13  ar
    20    29    13  ar
    21    30    14  ar
    22    15    16  ar
    23    15    30  ar
    24    31    15   1
    25    16    29  ar
    26    17    18   1
    27    17    31  am
    28    19    20  ar
    29    19    25   1
    30    20    21   1
    31    21    22   1
    32    21    23   1
    33    21    24   1
    34    31    32   2
    35     1    33   1
    36     3    34   1
    37     4    35   1
    38     7    36   1
    39     8    37   1
    40    10    38   1
    41    11    39   1
    42    13    40   1
    43    14    41   1
    44    16    42   1
    45    17    43   1
    46    18    44   1
    47    18    45   1
    48    18    46   1
    49    26    47   1
    50    27    48   1
@<TRIPOS>SUBSTRUCTURE
     1  BAX      1

