@<TRIPOS>MOLECULE
3gcs_ligand_022
    48    50
SMALL
GAST_HUCK
****
This file was generated by PARSER (from files_GN.cpp)

@<TRIPOS>ATOM
      1 C1        -15.0665   -7.3601   17.8518 C.ar        1 BAX      -0.0127
      2 C2        -15.9946   -7.6116   18.8831 C.ar        1 BAX       0.0959
      3 C3        -16.0317   -8.8778   19.4886 C.ar        1 BAX      -0.0108
      4 C4        -15.1781   -9.8960   19.0385 C.ar        1 BAX      -0.0291
      5 C13       -17.8339   -6.0735   18.8261 C.2         1 BAX       0.3148
      6 C16       -19.3810   -4.2345   19.0851 C.ar        1 BAX       0.0577
      7 C17       -20.6619   -4.7495   18.7845 C.ar        1 BAX      -0.0478
      8 C18       -21.7393   -3.8768   18.5352 C.ar        1 BAX      -0.0404
      9 C19       -21.5499   -2.4778   18.5680 C.ar        1 BAX       0.1047
     10 C20       -20.2552   -1.9688   18.8121 C.ar        1 BAX      -0.0404
     11 C21       -19.1883   -2.8374   19.0981 C.ar        1 BAX      -0.0478
     12 O22       -22.5950   -1.6353   18.2780 O.3         1 BAX      -0.2564
     13 C24       -24.2027   -1.5861   20.0798 C.ar        1 BAX       0.0024
     14 C25       -24.7514   -0.9005   21.1771 C.ar        1 BAX       0.0057
     15 C27       -23.2002    0.9147   20.9015 C.ar        1 BAX       0.1117
     16 C28       -22.6421    0.2542   19.7781 C.ar        1 BAX       0.0183
     17 N30       -23.2746    2.7163   22.4355 N.am        1 BAX      -0.2874
     18 C31       -22.8901    3.9718   22.9918 C.3         1 BAX       0.0193
     19 C5        -14.2651   -9.6573   17.9914 C.ar        1 BAX       0.0592
     20 C6        -14.1843   -8.3701   17.3828 C.ar        1 BAX       0.0462
     21 C7        -13.1977   -8.0793   16.2943 C.3         1 BAX       0.3715
     22 F8        -13.2038   -6.7833   15.8311 F           1 BAX      -0.2224
     23 F9        -11.9164   -8.3154   16.7312 F           1 BAX      -0.2224
     24 F10       -13.4492   -8.8785   15.2057 F           1 BAX      -0.2224
     25 CL11      -13.2872  -10.9668   17.5374 Cl          1 BAX      -0.0539
     26 N12       -16.7633   -6.6125   19.3853 N.am        1 BAX      -0.2087
     27 N14       -18.3352   -5.0245   19.4584 N.am        1 BAX      -0.2199
     28 O15       -18.2892   -6.4810   17.7642 O.2         1 BAX      -0.3813
     29 C23       -23.1195   -1.0140   19.3837 C.ar        1 BAX       0.1379
     30 N26       -24.2338    0.2994   21.5435 N.ar        1 BAX      -0.2925
     31 C29       -22.7379    2.1474   21.3611 C.2         1 BAX       0.2205
     32 O32       -21.8170    2.7115   20.7812 O.2         1 BAX      -0.3791
     33 H1        -15.0214   -6.4161   17.4635 H           1 BAX       0.0706
     34 H2        -16.6814   -9.0673   20.2587 H           1 BAX       0.0758
     35 H3        -15.2237  -10.8145   19.4853 H           1 BAX       0.0670
     36 H4        -20.8234   -5.7603   18.7834 H           1 BAX       0.0480
     37 H5        -22.6658   -4.2615   18.3403 H           1 BAX       0.0520
     38 H6        -20.0899   -0.9622   18.7964 H           1 BAX       0.0520
     39 H7        -18.2649   -2.4440   19.3001 H           1 BAX       0.0480
     40 H8        -24.5936   -2.4841   19.7878 H           1 BAX       0.0673
     41 H9        -25.5379   -1.2940   21.6985 H           1 BAX       0.0803
     42 H10       -21.8852    0.6861   19.2433 H           1 BAX       0.0696
     43 H11       -23.9908    2.2403   22.8844 H           1 BAX       0.1844
     44 H12       -23.5133    4.1819   23.8617 H           1 BAX       0.0484
     45 H13       -23.0292    4.7706   22.2609 H           1 BAX       0.0484
     46 H14       -21.8452    3.9450   23.3074 H           1 BAX       0.0484
     47 H15       -16.5001   -6.2652   20.2510 H           1 BAX       0.2266
     48 H16       -17.8287   -4.7132   20.2257 H           1 BAX       0.2230
@<TRIPOS>BOND
     1     2     1  ar
     2     1    20  ar
     3     2     3  ar
     4    26     2   1
     5     3     4  ar
     6     4    19  ar
     7     5    26  am
     8    27     5  am
     9     5    28   2
    10     7     6  ar
    11    11     6  ar
    12     6    27   1
    13     8     7  ar
    14     9     8  ar
    15     9    10  ar
    16    12     9   1
    17    10    11  ar
    18    29    12   1
    19    14    13  ar
    20    29    13  ar
    21    30    14  ar
    22    15    16  ar
    23    15    30  ar
    24    31    15   1
    25    16    29  ar
    26    17    18   1
    27    17    31  am
    28    19    20  ar
    29    19    25   1
    30    20    21   1
    31    21    22   1
    32    21    23   1
    33    21    24   1
    34    31    32   2
    35     1    33   1
    36     3    34   1
    37     4    35   1
    38     7    36   1
    39     8    37   1
    40    10    38   1
    41    11    39   1
    42    13    40   1
    43    14    41   1
    44    16    42   1
    45    17    43   1
    46    18    44   1
    47    18    45   1
    48    18    46   1
    49    26    47   1
    50    27    48   1
@<TRIPOS>SUBSTRUCTURE
     1  BAX      1

