@<TRIPOS>MOLECULE
3gcs_ligand_006
    48    50
SMALL
GAST_HUCK
****
This file was generated by PARSER (from files_GN.cpp)

@<TRIPOS>ATOM
      1 C1        -17.6135   -7.1697   18.6960 C.ar        1 BAX      -0.0127
      2 C2        -17.8683   -6.3269   17.5973 C.ar        1 BAX       0.0959
      3 C3        -16.9090   -6.2038   16.5794 C.ar        1 BAX      -0.0108
      4 C4        -15.6833   -6.8824   16.6850 C.ar        1 BAX      -0.0291
      5 C13       -19.3333   -4.4835   17.9840 C.2         1 BAX       0.3148
      6 C16       -21.0539   -2.7940   18.0428 C.ar        1 BAX       0.0577
      7 C17       -20.4106   -1.5805   17.7049 C.ar        1 BAX      -0.0478
      8 C18       -20.9724   -0.3473   18.0827 C.ar        1 BAX      -0.0404
      9 C19       -22.1649   -0.3066   18.8375 C.ar        1 BAX       0.1047
     10 C20       -22.8407   -1.5141   19.1168 C.ar        1 BAX      -0.0404
     11 C21       -22.3066   -2.7431   18.6936 C.ar        1 BAX      -0.0478
     12 O22       -22.6952    0.8798   19.2729 O.3         1 BAX      -0.2564
     13 C24       -22.2613    0.5816   21.6568 C.ar        1 BAX       0.0024
     14 C25       -21.7449    1.1195   22.8462 C.ar        1 BAX       0.0057
     15 C27       -21.0619    3.1292   21.7166 C.ar        1 BAX       0.1117
     16 C28       -21.5645    2.6053   20.4950 C.ar        1 BAX       0.0183
     17 N30       -19.9674    4.7877   22.9903 N.am        1 BAX      -0.2874
     18 C31       -19.3807    6.0554   23.2670 C.3         1 BAX       0.0193
     19 C5        -15.4164   -7.7092   17.7934 C.ar        1 BAX       0.0592
     20 C6        -16.3987   -7.8994   18.8070 C.ar        1 BAX       0.0462
     21 C7        -16.1716   -8.8317   19.9538 C.3         1 BAX       0.3715
     22 F8        -17.2663   -9.0455   20.7590 F           1 BAX      -0.2224
     23 F9        -15.8133  -10.0820   19.5083 F           1 BAX      -0.2224
     24 F10       -15.1702   -8.3464   20.7608 F           1 BAX      -0.2224
     25 CL11      -13.8871   -8.4518   17.8284 Cl          1 BAX      -0.0539
     26 N12       -19.0539   -5.6697   17.4748 N.am        1 BAX      -0.2087
     27 N14       -20.5425   -4.0087   17.7155 N.am        1 BAX      -0.2199
     28 O15       -18.5289   -3.8717   18.6805 O.2         1 BAX      -0.3813
     29 C23       -22.1538    1.3219   20.4580 C.ar        1 BAX       0.1379
     30 N26       -21.1758    2.3501   22.8294 N.ar        1 BAX      -0.2925
     31 C29       -20.4748    4.3883   21.8281 C.2         1 BAX       0.2205
     32 O32       -20.4414    5.1423   20.8632 O.2         1 BAX      -0.3791
     33 H1        -18.3305   -7.2502   19.4181 H           1 BAX       0.0706
     34 H2        -17.0871   -5.6089   15.7656 H           1 BAX       0.0758
     35 H3        -14.9863   -6.7604   15.9454 H           1 BAX       0.0670
     36 H4        -19.5449   -1.5873   17.1642 H           1 BAX       0.0480
     37 H5        -20.5046    0.5272   17.8278 H           1 BAX       0.0520
     38 H6        -23.7271   -1.5006   19.6275 H           1 BAX       0.0520
     39 H7        -22.8098   -3.6102   18.9066 H           1 BAX       0.0480
     40 H8        -22.7034   -0.3425   21.6623 H           1 BAX       0.0673
     41 H9        -21.8040    0.5994   23.7259 H           1 BAX       0.0803
     42 H10       -21.5012    3.1445   19.6275 H           1 BAX       0.0696
     43 H11       -19.9972    4.1643   23.7304 H           1 BAX       0.1844
     44 H12       -19.0676    6.0756   24.3120 H           1 BAX       0.0484
     45 H13       -20.1030    6.8585   23.1076 H           1 BAX       0.0484
     46 H14       -18.5042    6.2248   22.6387 H           1 BAX       0.0484
     47 H15       -19.7033   -6.0370   16.8535 H           1 BAX       0.2266
     48 H16       -21.1553   -4.6253   17.2915 H           1 BAX       0.2230
@<TRIPOS>BOND
     1     2     1  ar
     2     1    20  ar
     3     2     3  ar
     4    26     2   1
     5     3     4  ar
     6     4    19  ar
     7     5    26  am
     8    27     5  am
     9     5    28   2
    10     7     6  ar
    11    11     6  ar
    12     6    27   1
    13     8     7  ar
    14     9     8  ar
    15     9    10  ar
    16    12     9   1
    17    10    11  ar
    18    29    12   1
    19    14    13  ar
    20    29    13  ar
    21    30    14  ar
    22    15    16  ar
    23    15    30  ar
    24    31    15   1
    25    16    29  ar
    26    17    18   1
    27    17    31  am
    28    19    20  ar
    29    19    25   1
    30    20    21   1
    31    21    22   1
    32    21    23   1
    33    21    24   1
    34    31    32   2
    35     1    33   1
    36     3    34   1
    37     4    35   1
    38     7    36   1
    39     8    37   1
    40    10    38   1
    41    11    39   1
    42    13    40   1
    43    14    41   1
    44    16    42   1
    45    17    43   1
    46    18    44   1
    47    18    45   1
    48    18    46   1
    49    26    47   1
    50    27    48   1
@<TRIPOS>SUBSTRUCTURE
     1  BAX      1

