@<TRIPOS>MOLECULE
3gcs_ligand_042
    48    50
SMALL
GAST_HUCK
****
This file was generated by PARSER (from files_GN.cpp)

@<TRIPOS>ATOM
      1 C1        -11.4140   -2.0158    9.1672 C.ar        1 BAX      -0.0127
      2 C2        -10.7663   -3.0979    9.7995 C.ar        1 BAX       0.0959
      3 C3         -9.4869   -3.4856    9.3481 C.ar        1 BAX      -0.0108
      4 C4         -8.8824   -2.8112    8.2753 C.ar        1 BAX      -0.0291
      5 C13       -11.5671   -4.9841   11.0875 C.2         1 BAX       0.3148
      6 C16       -12.7632   -6.4653   12.6174 C.ar        1 BAX       0.0577
      7 C17       -14.0177   -6.4568   13.2640 C.ar        1 BAX      -0.0478
      8 C18       -14.5277   -7.6166   13.8628 C.ar        1 BAX      -0.0404
      9 C19       -13.7759   -8.8072   13.8605 C.ar        1 BAX       0.1047
     10 C20       -12.5336   -8.8371   13.1980 C.ar        1 BAX      -0.0404
     11 C21       -12.0295   -7.6761   12.5814 C.ar        1 BAX      -0.0478
     12 O22       -14.2959   -9.9444   14.4225 O.3         1 BAX      -0.2564
     13 C24       -14.0521  -11.4481   16.2439 C.ar        1 BAX       0.0024
     14 C25       -13.9439  -11.7044   17.6226 C.ar        1 BAX       0.0057
     15 C27       -14.0735   -9.3642   18.1181 C.ar        1 BAX       0.1117
     16 C28       -14.1991   -9.0810   16.7395 C.ar        1 BAX       0.0183
     17 N30       -13.7906   -8.6536   20.3282 N.am        1 BAX      -0.2874
     18 C31       -13.6110   -7.6983   21.3626 C.3         1 BAX       0.0193
     19 C5         -9.5441   -1.7458    7.6320 C.ar        1 BAX       0.0592
     20 C6        -10.8399   -1.3377    8.0616 C.ar        1 BAX       0.0462
     21 C7        -11.5944   -0.2496    7.3641 C.3         1 BAX       0.3715
     22 F8        -12.8427    0.0247    7.8762 F           1 BAX      -0.2224
     23 F9        -10.8908    0.9285    7.4203 F           1 BAX      -0.2224
     24 F10       -11.7961   -0.5906    6.0480 F           1 BAX      -0.2224
     25 CL11       -8.7211   -1.0068    6.3416 Cl          1 BAX      -0.0539
     26 N12       -11.4089   -3.6915   10.8459 N.am        1 BAX      -0.2087
     27 N14       -12.3330   -5.2664   12.1277 N.am        1 BAX      -0.2199
     28 O15       -11.1331   -5.8468   10.3325 O.2         1 BAX      -0.3813
     29 C23       -14.1554  -10.1202   15.7825 C.ar        1 BAX       0.1379
     30 N26       -13.9468  -10.6689   18.4974 N.ar        1 BAX      -0.2925
     31 C29       -14.0303   -8.3482   19.0647 C.2         1 BAX       0.2205
     32 O32       -14.1604   -7.1734   18.7309 O.2         1 BAX      -0.3791
     33 H1        -12.3403   -1.7437    9.5057 H           1 BAX       0.0706
     34 H2         -8.9825   -4.2476    9.8084 H           1 BAX       0.0758
     35 H3         -7.9540   -3.1091    7.9633 H           1 BAX       0.0670
     36 H4        -14.5697   -5.5977   13.3176 H           1 BAX       0.0480
     37 H5        -15.4439   -7.5860   14.3185 H           1 BAX       0.0520
     38 H6        -11.9947   -9.7049   13.1650 H           1 BAX       0.0520
     39 H7        -11.1164   -7.7214   12.1288 H           1 BAX       0.0480
     40 H8        -14.0603  -12.2237   15.5777 H           1 BAX       0.0673
     41 H9        -13.8538  -12.6608   17.9680 H           1 BAX       0.0803
     42 H10       -14.3008   -8.1123   16.4331 H           1 BAX       0.0696
     43 H11       -13.7131   -9.5934   20.5641 H           1 BAX       0.1844
     44 H12       -13.3567   -8.2176   22.2865 H           1 BAX       0.0484
     45 H13       -14.5369   -7.1331   21.4988 H           1 BAX       0.0484
     46 H14       -12.7944   -7.0202   21.1025 H           1 BAX       0.0484
     47 H15       -11.9047   -3.0909   11.4275 H           1 BAX       0.2266
     48 H16       -12.7002   -4.4962   12.5881 H           1 BAX       0.2230
@<TRIPOS>BOND
     1     2     1  ar
     2     1    20  ar
     3     2     3  ar
     4    26     2   1
     5     3     4  ar
     6     4    19  ar
     7     5    26  am
     8    27     5  am
     9     5    28   2
    10     7     6  ar
    11    11     6  ar
    12     6    27   1
    13     8     7  ar
    14     9     8  ar
    15     9    10  ar
    16    12     9   1
    17    10    11  ar
    18    29    12   1
    19    14    13  ar
    20    29    13  ar
    21    30    14  ar
    22    15    16  ar
    23    15    30  ar
    24    31    15   1
    25    16    29  ar
    26    17    18   1
    27    17    31  am
    28    19    20  ar
    29    19    25   1
    30    20    21   1
    31    21    22   1
    32    21    23   1
    33    21    24   1
    34    31    32   2
    35     1    33   1
    36     3    34   1
    37     4    35   1
    38     7    36   1
    39     8    37   1
    40    10    38   1
    41    11    39   1
    42    13    40   1
    43    14    41   1
    44    16    42   1
    45    17    43   1
    46    18    44   1
    47    18    45   1
    48    18    46   1
    49    26    47   1
    50    27    48   1
@<TRIPOS>SUBSTRUCTURE
     1  BAX      1

