@<TRIPOS>MOLECULE
3gcs_ligand_040
    48    50
SMALL
GAST_HUCK
****
This file was generated by PARSER (from files_GN.cpp)

@<TRIPOS>ATOM
      1 C1        -14.9039   -9.1977   18.7226 C.ar        1 BAX      -0.0127
      2 C2        -14.7889   -7.8727   19.1950 C.ar        1 BAX       0.0959
      3 C3        -13.5498   -7.2138   19.1027 C.ar        1 BAX      -0.0108
      4 C4        -12.4592   -7.8480   18.4989 C.ar        1 BAX      -0.0291
      5 C13       -16.8854   -6.7143   19.2300 C.2         1 BAX       0.3148
      6 C16       -18.5285   -4.9682   19.5646 C.ar        1 BAX       0.0577
      7 C17       -19.7312   -5.3720   18.9433 C.ar        1 BAX      -0.0478
      8 C18       -20.7168   -4.4161   18.6272 C.ar        1 BAX      -0.0404
      9 C19       -20.4930   -3.0518   18.8945 C.ar        1 BAX       0.1047
     10 C20       -19.3065   -2.6485   19.5397 C.ar        1 BAX      -0.0404
     11 C21       -18.3382   -3.6058   19.8778 C.ar        1 BAX      -0.0478
     12 O22       -21.4508   -2.1418   18.5599 O.3         1 BAX      -0.2564
     13 C24       -21.0610    0.0047   17.5946 C.ar        1 BAX       0.0024
     14 C25       -20.8615    0.7913   16.4509 C.ar        1 BAX       0.0057
     15 C27       -20.7473   -1.1648   15.0520 C.ar        1 BAX       0.1117
     16 C28       -20.9504   -1.9828   16.1867 C.ar        1 BAX       0.0183
     17 N30       -20.3848   -0.8636   12.7494 N.am        1 BAX      -0.2874
     18 C31       -20.1866   -1.2545   11.3954 C.3         1 BAX       0.0193
     19 C5        -12.5800   -9.1537   17.9852 C.ar        1 BAX       0.0592
     20 C6        -13.8019   -9.8715   18.1283 C.ar        1 BAX       0.0462
     21 C7        -13.9213  -11.2872   17.6680 C.3         1 BAX       0.3715
     22 F8        -15.1182  -11.8999   17.9544 F           1 BAX      -0.2224
     23 F9        -13.7763  -11.3498   16.3046 F           1 BAX      -0.2224
     24 F10       -12.9550  -12.0684   18.2580 F           1 BAX      -0.2224
     25 CL11      -11.2154   -9.7651   17.1811 Cl          1 BAX      -0.0539
     26 N12       -15.7993   -7.2075   19.8085 N.am        1 BAX      -0.2087
     27 N14       -17.5562   -5.8338   19.9551 N.am        1 BAX      -0.2199
     28 O15       -17.1529   -6.9296   18.0499 O.2         1 BAX      -0.3813
     29 C23       -21.1199   -1.3951   17.4608 C.ar        1 BAX       0.1379
     30 N26       -20.7211    0.1879   15.2461 N.ar        1 BAX      -0.2925
     31 C29       -20.6013   -1.6833   13.7670 C.2         1 BAX       0.2205
     32 O32       -20.6605   -2.8917   13.5760 O.2         1 BAX      -0.3791
     33 H1        -15.8038   -9.6703   18.8379 H           1 BAX       0.0706
     34 H2        -13.4408   -6.2558   19.4425 H           1 BAX       0.0758
     35 H3        -11.5825   -7.3367   18.4023 H           1 BAX       0.0670
     36 H4        -19.9143   -6.3596   18.7603 H           1 BAX       0.0480
     37 H5        -21.5982   -4.7154   18.2064 H           1 BAX       0.0520
     38 H6        -19.1449   -1.6654   19.7644 H           1 BAX       0.0520
     39 H7        -17.4866   -3.2942   20.3465 H           1 BAX       0.0480
     40 H8        -21.1989    0.4458   18.5068 H           1 BAX       0.0673
     41 H9        -20.8438    1.8114   16.5154 H           1 BAX       0.0803
     42 H10       -21.0190   -2.9986   16.0917 H           1 BAX       0.0696
     43 H11       -20.3359    0.0843   12.9429 H           1 BAX       0.1844
     44 H12       -20.0140   -0.3617   10.7954 H           1 BAX       0.0484
     45 H13       -21.0690   -1.7732   11.0153 H           1 BAX       0.0484
     46 H14       -19.3149   -1.9067   11.3173 H           1 BAX       0.0484
     47 H15       -15.5908   -6.8512   20.6899 H           1 BAX       0.2266
     48 H16       -17.1712   -5.6410   20.8199 H           1 BAX       0.2230
@<TRIPOS>BOND
     1     2     1  ar
     2     1    20  ar
     3     2     3  ar
     4    26     2   1
     5     3     4  ar
     6     4    19  ar
     7     5    26  am
     8    27     5  am
     9     5    28   2
    10     7     6  ar
    11    11     6  ar
    12     6    27   1
    13     8     7  ar
    14     9     8  ar
    15     9    10  ar
    16    12     9   1
    17    10    11  ar
    18    29    12   1
    19    14    13  ar
    20    29    13  ar
    21    30    14  ar
    22    15    16  ar
    23    15    30  ar
    24    31    15   1
    25    16    29  ar
    26    17    18   1
    27    17    31  am
    28    19    20  ar
    29    19    25   1
    30    20    21   1
    31    21    22   1
    32    21    23   1
    33    21    24   1
    34    31    32   2
    35     1    33   1
    36     3    34   1
    37     4    35   1
    38     7    36   1
    39     8    37   1
    40    10    38   1
    41    11    39   1
    42    13    40   1
    43    14    41   1
    44    16    42   1
    45    17    43   1
    46    18    44   1
    47    18    45   1
    48    18    46   1
    49    26    47   1
    50    27    48   1
@<TRIPOS>SUBSTRUCTURE
     1  BAX      1

