@<TRIPOS>MOLECULE
3gcs_ligand_028
    48    50
SMALL
GAST_HUCK
****
This file was generated by PARSER (from files_GN.cpp)

@<TRIPOS>ATOM
      1 C1        -15.3261   -8.6733   15.3349 C.ar        1 BAX      -0.0127
      2 C2        -16.6028   -8.1152   15.5567 C.ar        1 BAX       0.0959
      3 C3        -16.8227   -7.3413   16.7113 C.ar        1 BAX      -0.0108
      4 C4        -15.7750   -7.1156   17.6174 C.ar        1 BAX      -0.0291
      5 C13       -18.2239   -7.4767   13.9090 C.2         1 BAX       0.3148
      6 C16       -19.7712   -7.2608   12.0613 C.ar        1 BAX       0.0577
      7 C17       -20.3614   -5.9958   12.2915 C.ar        1 BAX      -0.0478
      8 C18       -21.0547   -5.3312   11.2684 C.ar        1 BAX      -0.0404
      9 C19       -21.1622   -5.9071    9.9823 C.ar        1 BAX       0.1047
     10 C20       -20.6046   -7.1828    9.7581 C.ar        1 BAX      -0.0404
     11 C21       -19.9299   -7.8611   10.7932 C.ar        1 BAX      -0.0478
     12 O22       -21.8236   -5.3041    8.9332 O.3         1 BAX      -0.2564
     13 C24       -22.7726   -3.1263    8.7349 C.ar        1 BAX       0.0024
     14 C25       -22.6079   -1.7411    8.5817 C.ar        1 BAX       0.0057
     15 C27       -20.2170   -1.9744    8.4706 C.ar        1 BAX       0.1117
     16 C28       -20.3552   -3.3779    8.5984 C.ar        1 BAX       0.0183
     17 N30       -18.9099   -0.0183    8.3386 N.am        1 BAX      -0.2874
     18 C31       -17.7145    0.7563    8.3109 C.3         1 BAX       0.0193
     19 C5        -14.4934   -7.6519   17.3836 C.ar        1 BAX       0.0592
     20 C6        -14.2398   -8.4303   16.2179 C.ar        1 BAX       0.0462
     21 C7        -12.8745   -8.9608   15.9171 C.3         1 BAX       0.3715
     22 F8        -12.7578   -9.6213   14.7150 F           1 BAX      -0.2224
     23 F9        -11.9688   -7.9297   15.8586 F           1 BAX      -0.2224
     24 F10       -12.4768   -9.8446   16.8913 F           1 BAX      -0.2224
     25 CL11      -13.3112   -7.3175   18.5582 Cl          1 BAX      -0.0539
     26 N12       -17.6000   -8.3675   14.6623 N.am        1 BAX      -0.2087
     27 N14       -19.0823   -7.9524   13.0195 N.am        1 BAX      -0.2199
     28 O15       -17.9354   -6.2778   13.9662 O.2         1 BAX      -0.3813
     29 C23       -21.6359   -3.9542    8.7549 C.ar        1 BAX       0.1379
     30 N26       -21.3579   -1.2273    8.4668 N.ar        1 BAX      -0.2925
     31 C29       -18.9799   -1.3434    8.3797 C.2         1 BAX       0.2205
     32 O32       -17.9473   -2.0041    8.3650 O.2         1 BAX      -0.3791
     33 H1        -15.1871   -9.2445   14.4967 H           1 BAX       0.0706
     34 H2        -17.7509   -6.9617   16.9105 H           1 BAX       0.0758
     35 H3        -15.9554   -6.5562   18.4589 H           1 BAX       0.0670
     36 H4        -20.3044   -5.5586   13.2118 H           1 BAX       0.0480
     37 H5        -21.4755   -4.4193   11.4602 H           1 BAX       0.0520
     38 H6        -20.6832   -7.6245    8.8424 H           1 BAX       0.0520
     39 H7        -19.5300   -8.7841   10.6043 H           1 BAX       0.0480
     40 H8        -23.7081   -3.5225    8.8453 H           1 BAX       0.0673
     41 H9        -23.4175   -1.1189    8.5683 H           1 BAX       0.0803
     42 H10       -19.5327   -3.9845    8.6190 H           1 BAX       0.0696
     43 H11       -19.7468    0.4711    8.3451 H           1 BAX       0.1844
     44 H12       -17.9806    1.8133    8.2831 H           1 BAX       0.0484
     45 H13       -17.1246    0.5187    7.4242 H           1 BAX       0.0484
     46 H14       -17.1190    0.5694    9.2065 H           1 BAX       0.0484
     47 H15       -17.7830   -9.3025   14.4674 H           1 BAX       0.2266
     48 H16       -19.1559   -8.9173   12.9774 H           1 BAX       0.2230
@<TRIPOS>BOND
     1     2     1  ar
     2     1    20  ar
     3     2     3  ar
     4    26     2   1
     5     3     4  ar
     6     4    19  ar
     7     5    26  am
     8    27     5  am
     9     5    28   2
    10     7     6  ar
    11    11     6  ar
    12     6    27   1
    13     8     7  ar
    14     9     8  ar
    15     9    10  ar
    16    12     9   1
    17    10    11  ar
    18    29    12   1
    19    14    13  ar
    20    29    13  ar
    21    30    14  ar
    22    15    16  ar
    23    15    30  ar
    24    31    15   1
    25    16    29  ar
    26    17    18   1
    27    17    31  am
    28    19    20  ar
    29    19    25   1
    30    20    21   1
    31    21    22   1
    32    21    23   1
    33    21    24   1
    34    31    32   2
    35     1    33   1
    36     3    34   1
    37     4    35   1
    38     7    36   1
    39     8    37   1
    40    10    38   1
    41    11    39   1
    42    13    40   1
    43    14    41   1
    44    16    42   1
    45    17    43   1
    46    18    44   1
    47    18    45   1
    48    18    46   1
    49    26    47   1
    50    27    48   1
@<TRIPOS>SUBSTRUCTURE
     1  BAX      1

