@<TRIPOS>MOLECULE
3gcs_ligand_043
    48    50
SMALL
GAST_HUCK
****
This file was generated by PARSER (from files_GN.cpp)

@<TRIPOS>ATOM
      1 C1        -14.5447   -9.4743   18.4375 C.ar        1 BAX      -0.0127
      2 C2        -14.4779   -8.0960   18.7190 C.ar        1 BAX       0.0959
      3 C3        -13.2427   -7.4322   18.6742 C.ar        1 BAX      -0.0108
      4 C4        -12.0957   -8.1322   18.2819 C.ar        1 BAX      -0.0291
      5 C13       -16.5255   -7.0253   18.1511 C.2         1 BAX       0.3148
      6 C16       -18.6128   -5.7731   18.0550 C.ar        1 BAX       0.0577
      7 C17       -19.7870   -5.6528   18.8242 C.ar        1 BAX      -0.0478
      8 C18       -20.8859   -4.9248   18.3433 C.ar        1 BAX      -0.0404
      9 C19       -20.8270   -4.2593   17.0900 C.ar        1 BAX       0.1047
     10 C20       -19.6632   -4.4129   16.3087 C.ar        1 BAX      -0.0404
     11 C21       -18.5734   -5.1719   16.7753 C.ar        1 BAX      -0.0478
     12 O22       -21.7996   -3.4270   16.5635 O.3         1 BAX      -0.2564
     13 C24       -24.1385   -3.9642   16.4650 C.ar        1 BAX       0.0024
     14 C25       -25.3863   -3.9951   17.1077 C.ar        1 BAX       0.0057
     15 C27       -24.4555   -3.0336   19.1002 C.ar        1 BAX       0.1117
     16 C28       -23.2071   -2.8949   18.4441 C.ar        1 BAX       0.0183
     17 N30       -25.7512   -3.0327   21.0610 N.am        1 BAX      -0.2874
     18 C31       -25.9757   -2.8855   22.4560 C.3         1 BAX       0.0193
     19 C5        -12.1621   -9.4973   17.9456 C.ar        1 BAX       0.0592
     20 C6        -13.3942  -10.2057   18.0501 C.ar        1 BAX       0.0462
     21 C7        -13.5037  -11.6647   17.7348 C.3         1 BAX       0.3715
     22 F8        -14.7575  -12.2129   17.8899 F           1 BAX      -0.2224
     23 F9        -13.1710  -11.8769   16.4218 F           1 BAX      -0.2224
     24 F10       -12.6650  -12.3983   18.5398 F           1 BAX      -0.2224
     25 CL11      -10.7260  -10.1969   17.3764 Cl          1 BAX      -0.0539
     26 N12       -15.6007   -7.3988   19.0228 N.am        1 BAX      -0.2087
     27 N14       -17.5509   -6.3740   18.6688 N.am        1 BAX      -0.2199
     28 O15       -16.4391   -7.2859   16.9577 O.2         1 BAX      -0.3813
     29 C23       -23.0354   -3.4233   17.1511 C.ar        1 BAX       0.1379
     30 N26       -25.4852   -3.5756   18.3919 N.ar        1 BAX      -0.2925
     31 C29       -24.6320   -2.6973   20.4332 C.2         1 BAX       0.2205
     32 O32       -23.7182   -2.1733   21.0653 O.2         1 BAX      -0.3791
     33 H1        -15.4541   -9.9398   18.5126 H           1 BAX       0.0706
     34 H2        -13.1838   -6.4319   18.8835 H           1 BAX       0.0758
     35 H3        -11.2214   -7.6152   18.2000 H           1 BAX       0.0670
     36 H4        -19.8460   -6.0777   19.7557 H           1 BAX       0.0480
     37 H5        -21.7159   -4.8658   18.9401 H           1 BAX       0.0520
     38 H6        -19.5985   -3.9414   15.4017 H           1 BAX       0.0520
     39 H7        -17.7293   -5.2187   16.2015 H           1 BAX       0.0480
     40 H8        -24.0342   -4.3231   15.5122 H           1 BAX       0.0673
     41 H9        -26.2096   -4.3702   16.6317 H           1 BAX       0.0803
     42 H10       -22.4059   -2.4833   18.9251 H           1 BAX       0.0696
     43 H11       -26.4627   -3.4400   20.5458 H           1 BAX       0.1844
     44 H12       -26.9850   -3.2135   22.6899 H           1 BAX       0.0484
     45 H13       -25.8589   -1.8384   22.7485 H           1 BAX       0.0484
     46 H14       -25.2641   -3.5029   23.0093 H           1 BAX       0.0484
     47 H15       -15.6930   -7.0838   19.9360 H           1 BAX       0.2266
     48 H16       -17.5540   -6.3279   19.6387 H           1 BAX       0.2230
@<TRIPOS>BOND
     1     2     1  ar
     2     1    20  ar
     3     2     3  ar
     4    26     2   1
     5     3     4  ar
     6     4    19  ar
     7     5    26  am
     8    27     5  am
     9     5    28   2
    10     7     6  ar
    11    11     6  ar
    12     6    27   1
    13     8     7  ar
    14     9     8  ar
    15     9    10  ar
    16    12     9   1
    17    10    11  ar
    18    29    12   1
    19    14    13  ar
    20    29    13  ar
    21    30    14  ar
    22    15    16  ar
    23    15    30  ar
    24    31    15   1
    25    16    29  ar
    26    17    18   1
    27    17    31  am
    28    19    20  ar
    29    19    25   1
    30    20    21   1
    31    21    22   1
    32    21    23   1
    33    21    24   1
    34    31    32   2
    35     1    33   1
    36     3    34   1
    37     4    35   1
    38     7    36   1
    39     8    37   1
    40    10    38   1
    41    11    39   1
    42    13    40   1
    43    14    41   1
    44    16    42   1
    45    17    43   1
    46    18    44   1
    47    18    45   1
    48    18    46   1
    49    26    47   1
    50    27    48   1
@<TRIPOS>SUBSTRUCTURE
     1  BAX      1

