@<TRIPOS>MOLECULE
3gcs_ligand_027
    48    50
SMALL
GAST_HUCK
****
This file was generated by PARSER (from files_GN.cpp)

@<TRIPOS>ATOM
      1 C1        -15.3038   -9.3891   18.6821 C.ar        1 BAX      -0.0127
      2 C2        -15.4508   -7.9965   18.8671 C.ar        1 BAX       0.0959
      3 C3        -14.3329   -7.1684   18.6423 C.ar        1 BAX      -0.0108
      4 C4        -13.1216   -7.7118   18.1950 C.ar        1 BAX      -0.0291
      5 C13       -17.2570   -6.4119   18.8247 C.2         1 BAX       0.3148
      6 C16       -19.1739   -4.9981   19.0024 C.ar        1 BAX       0.0577
      7 C17       -20.4554   -5.2107   18.4461 C.ar        1 BAX      -0.0478
      8 C18       -21.1987   -4.1260   17.9437 C.ar        1 BAX      -0.0404
      9 C19       -20.6855   -2.8151   18.0190 C.ar        1 BAX       0.1047
     10 C20       -19.4291   -2.5960   18.6115 C.ar        1 BAX      -0.0404
     11 C21       -18.6841   -3.6795   19.1139 C.ar        1 BAX      -0.0478
     12 O22       -21.4085   -1.7809   17.4935 O.3         1 BAX      -0.2564
     13 C24       -21.7029    0.3021   18.6361 C.ar        1 BAX       0.0024
     14 C25       -22.3945    1.0625   19.5946 C.ar        1 BAX       0.0057
     15 C27       -23.7630   -0.8174   20.1951 C.ar        1 BAX       0.1117
     16 C28       -23.1130   -1.5945   19.2099 C.ar        1 BAX       0.0183
     17 N30       -24.9711   -2.6339   21.1314 N.am        1 BAX      -0.2874
     18 C31       -25.8326   -3.2615   22.0778 C.3         1 BAX       0.0193
     19 C5        -13.0084   -9.0900   17.9289 C.ar        1 BAX       0.0592
     20 C6        -14.1128   -9.9598   18.1663 C.ar        1 BAX       0.0462
     21 C7        -14.0409  -11.4203   17.8417 C.3         1 BAX       0.3715
     22 F8        -15.1790  -12.1348   18.1131 F           1 BAX      -0.2224
     23 F9        -13.8146  -11.5815   16.5007 F           1 BAX      -0.2224
     24 F10       -13.0285  -12.0191   18.5451 F           1 BAX      -0.2224
     25 CL11      -11.5178   -9.6120   17.3050 Cl          1 BAX      -0.0539
     26 N12       -16.6651   -7.5107   19.2678 N.am        1 BAX      -0.2087
     27 N14       -18.4275   -6.0737   19.3734 N.am        1 BAX      -0.2199
     28 O15       -16.7959   -5.7701   17.8971 O.2         1 BAX      -0.3813
     29 C23       -22.0590   -1.0471   18.4486 C.ar        1 BAX       0.1379
     30 N26       -23.3735    0.4834   20.3309 N.ar        1 BAX      -0.2925
     31 C29       -24.7370   -1.3308   21.0553 C.2         1 BAX       0.2205
     32 O32       -25.3289   -0.5598   21.7944 O.2         1 BAX      -0.3791
     33 H1        -16.1106   -9.9881   18.8883 H           1 BAX       0.0706
     34 H2        -14.3876   -6.1663   18.8101 H           1 BAX       0.0758
     35 H3        -12.3234   -7.0905   18.0453 H           1 BAX       0.0670
     36 H4        -20.8278   -6.1626   18.3616 H           1 BAX       0.0480
     37 H5        -22.1099   -4.2938   17.5174 H           1 BAX       0.0520
     38 H6        -19.0474   -1.6491   18.6778 H           1 BAX       0.0520
     39 H7        -17.7787   -3.5015   19.5518 H           1 BAX       0.0480
     40 H8        -20.9563    0.7233   18.0855 H           1 BAX       0.0673
     41 H9        -22.1530    2.0430   19.7497 H           1 BAX       0.0803
     42 H10       -23.3863   -2.5676   19.0417 H           1 BAX       0.0696
     43 H11       -24.4874   -3.2237   20.5345 H           1 BAX       0.1844
     44 H12       -25.8249   -4.3380   21.9140 H           1 BAX       0.0484
     45 H13       -26.8498   -2.8873   21.9686 H           1 BAX       0.0484
     46 H14       -25.4749   -3.0553   23.0844 H           1 BAX       0.0484
     47 H15       -17.1748   -8.0663   19.8748 H           1 BAX       0.2266
     48 H16       -18.8132   -6.6842   20.0130 H           1 BAX       0.2230
@<TRIPOS>BOND
     1     2     1  ar
     2     1    20  ar
     3     2     3  ar
     4    26     2   1
     5     3     4  ar
     6     4    19  ar
     7     5    26  am
     8    27     5  am
     9     5    28   2
    10     7     6  ar
    11    11     6  ar
    12     6    27   1
    13     8     7  ar
    14     9     8  ar
    15     9    10  ar
    16    12     9   1
    17    10    11  ar
    18    29    12   1
    19    14    13  ar
    20    29    13  ar
    21    30    14  ar
    22    15    16  ar
    23    15    30  ar
    24    31    15   1
    25    16    29  ar
    26    17    18   1
    27    17    31  am
    28    19    20  ar
    29    19    25   1
    30    20    21   1
    31    21    22   1
    32    21    23   1
    33    21    24   1
    34    31    32   2
    35     1    33   1
    36     3    34   1
    37     4    35   1
    38     7    36   1
    39     8    37   1
    40    10    38   1
    41    11    39   1
    42    13    40   1
    43    14    41   1
    44    16    42   1
    45    17    43   1
    46    18    44   1
    47    18    45   1
    48    18    46   1
    49    26    47   1
    50    27    48   1
@<TRIPOS>SUBSTRUCTURE
     1  BAX      1

