@<TRIPOS>MOLECULE
3gcs_ligand_033
    48    50
SMALL
GAST_HUCK
****
This file was generated by PARSER (from files_GN.cpp)

@<TRIPOS>ATOM
      1 C1        -20.1009   -2.6863   15.5977 C.ar        1 BAX      -0.0127
      2 C2        -19.6066   -3.8709   15.0152 C.ar        1 BAX       0.0959
      3 C3        -19.1712   -4.9230   15.8447 C.ar        1 BAX      -0.0108
      4 C4        -19.2814   -4.8083   17.2395 C.ar        1 BAX      -0.0291
      5 C13       -18.4629   -3.9523   12.9236 C.2         1 BAX       0.3148
      6 C16       -17.7073   -4.0072   10.5986 C.ar        1 BAX       0.0577
      7 C17       -18.0075   -4.6996    9.4042 C.ar        1 BAX      -0.0478
      8 C18       -17.1329   -4.6589    8.3007 C.ar        1 BAX      -0.0404
      9 C19       -15.9379   -3.9152    8.3640 C.ar        1 BAX       0.1047
     10 C20       -15.6583   -3.1765    9.5322 C.ar        1 BAX      -0.0404
     11 C21       -16.5242   -3.2308   10.6417 C.ar        1 BAX      -0.0478
     12 O22       -15.1116   -3.8685    7.2685 O.3         1 BAX      -0.2564
     13 C24       -13.9387   -5.9602    6.9833 C.ar        1 BAX       0.0024
     14 C25       -12.7656   -6.7087    7.1742 C.ar        1 BAX       0.0057
     15 C27       -11.6578   -4.8339    8.2003 C.ar        1 BAX       0.1117
     16 C28       -12.8235   -4.0525    8.0064 C.ar        1 BAX       0.0183
     17 N30       -10.3958   -3.1085    9.2580 N.am        1 BAX      -0.2874
     18 C31        -9.2648   -2.5498    9.9216 C.3         1 BAX       0.0193
     19 C5        -19.7898   -3.6302   17.8220 C.ar        1 BAX       0.0592
     20 C6        -20.1740   -2.5287   17.0055 C.ar        1 BAX       0.0462
     21 C7        -20.6321   -1.2370   17.6036 C.3         1 BAX       0.3715
     22 F8        -20.8584   -0.2204   16.7052 F           1 BAX      -0.2224
     23 F9        -21.8035   -1.4296   18.2949 F           1 BAX      -0.2224
     24 F10       -19.6805   -0.7515   18.4649 F           1 BAX      -0.2224
     25 CL11      -19.8994   -3.6104   19.5174 Cl          1 BAX      -0.0539
     26 N12       -19.5633   -3.9923   13.6610 N.am        1 BAX      -0.2087
     27 N14       -18.6264   -4.0797   11.6138 N.am        1 BAX      -0.2199
     28 O15       -17.3585   -3.8206   13.4396 O.2         1 BAX      -0.3813
     29 C23       -13.9799   -4.6261    7.4331 C.ar        1 BAX       0.1379
     30 N26       -11.6962   -6.1307    7.7781 N.ar        1 BAX      -0.2925
     31 C29       -10.4970   -4.3552    8.8069 C.2         1 BAX       0.2205
     32 O32        -9.5470   -5.1163    8.9390 O.2         1 BAX      -0.3791
     33 H1        -20.3859   -1.9240   14.9763 H           1 BAX       0.0706
     34 H2        -18.7951   -5.7820   15.4376 H           1 BAX       0.0758
     35 H3        -18.9863   -5.5925   17.8271 H           1 BAX       0.0670
     36 H4        -18.8653   -5.2528    9.3321 H           1 BAX       0.0480
     37 H5        -17.3661   -5.1769    7.4489 H           1 BAX       0.0520
     38 H6        -14.8177   -2.5965    9.5798 H           1 BAX       0.0520
     39 H7        -16.2971   -2.6745   11.4661 H           1 BAX       0.0480
     40 H8        -14.7544   -6.3818    6.5329 H           1 BAX       0.0673
     41 H9        -12.7170   -7.6840    6.8759 H           1 BAX       0.0803
     42 H10       -12.8543   -3.0724    8.2915 H           1 BAX       0.0696
     43 H11       -11.1616   -2.5254    9.1500 H           1 BAX       0.1844
     44 H12        -9.4924   -1.5225   10.2053 H           1 BAX       0.0484
     45 H13        -8.3943   -2.5484    9.2630 H           1 BAX       0.0484
     46 H14        -9.0392   -3.1186   10.8245 H           1 BAX       0.0484
     47 H15       -20.4152   -4.0178   13.1934 H           1 BAX       0.2266
     48 H16       -19.5311   -4.2989   11.3403 H           1 BAX       0.2230
@<TRIPOS>BOND
     1     2     1  ar
     2     1    20  ar
     3     2     3  ar
     4    26     2   1
     5     3     4  ar
     6     4    19  ar
     7     5    26  am
     8    27     5  am
     9     5    28   2
    10     7     6  ar
    11    11     6  ar
    12     6    27   1
    13     8     7  ar
    14     9     8  ar
    15     9    10  ar
    16    12     9   1
    17    10    11  ar
    18    29    12   1
    19    14    13  ar
    20    29    13  ar
    21    30    14  ar
    22    15    16  ar
    23    15    30  ar
    24    31    15   1
    25    16    29  ar
    26    17    18   1
    27    17    31  am
    28    19    20  ar
    29    19    25   1
    30    20    21   1
    31    21    22   1
    32    21    23   1
    33    21    24   1
    34    31    32   2
    35     1    33   1
    36     3    34   1
    37     4    35   1
    38     7    36   1
    39     8    37   1
    40    10    38   1
    41    11    39   1
    42    13    40   1
    43    14    41   1
    44    16    42   1
    45    17    43   1
    46    18    44   1
    47    18    45   1
    48    18    46   1
    49    26    47   1
    50    27    48   1
@<TRIPOS>SUBSTRUCTURE
     1  BAX      1

