@<TRIPOS>MOLECULE
3gcs_ligand_020
    48    50
SMALL
GAST_HUCK
****
This file was generated by PARSER (from files_GN.cpp)

@<TRIPOS>ATOM
      1 C1        -21.3020    4.1526   18.9773 C.ar        1 BAX      -0.0127
      2 C2        -21.8978    2.9309   19.3574 C.ar        1 BAX       0.0959
      3 C3        -22.8439    2.9365   20.4050 C.ar        1 BAX      -0.0108
      4 C4        -23.1540    4.1290   21.0751 C.ar        1 BAX      -0.0291
      5 C13       -21.4683    0.5575   19.0451 C.2         1 BAX       0.3148
      6 C16       -20.7981   -1.6149   18.3396 C.ar        1 BAX       0.0577
      7 C17       -19.5138   -2.0462   18.7318 C.ar        1 BAX      -0.0478
      8 C18       -19.2411   -3.4201   18.8503 C.ar        1 BAX      -0.0404
      9 C19       -20.2348   -4.3773   18.5379 C.ar        1 BAX       0.1047
     10 C20       -21.5292   -3.9371   18.1974 C.ar        1 BAX      -0.0404
     11 C21       -21.8114   -2.5637   18.0948 C.ar        1 BAX      -0.0478
     12 O22       -20.0010   -5.7310   18.5436 O.3         1 BAX      -0.2564
     13 C24       -18.5731   -5.7920   16.5437 C.ar        1 BAX       0.0024
     14 C25       -17.3953   -6.2748   15.9508 C.ar        1 BAX       0.0057
     15 C27       -16.8364   -7.5164   17.9313 C.ar        1 BAX       0.1117
     16 C28       -18.0127   -7.0372   18.5571 C.ar        1 BAX       0.0183
     17 N30       -14.8423   -8.7732   17.9390 N.am        1 BAX      -0.2874
     18 C31       -13.8624   -9.6641   18.4619 C.3         1 BAX       0.0193
     19 C5        -22.5291    5.3380   20.7112 C.ar        1 BAX       0.0592
     20 C6        -21.5863    5.3713   19.6452 C.ar        1 BAX       0.0462
     21 C7        -20.9043    6.6402   19.2383 C.3         1 BAX       0.3715
     22 F8        -19.9977    6.5149   18.2106 F           1 BAX      -0.2224
     23 F9        -21.8298    7.5659   18.8202 F           1 BAX      -0.2224
     24 F10       -20.2012    7.1616   20.2974 F           1 BAX      -0.2224
     25 CL11      -22.9603    6.7142   21.6071 Cl          1 BAX      -0.0539
     26 N12       -21.5446    1.8181   18.6479 N.am        1 BAX      -0.2087
     27 N14       -21.0393   -0.2987   18.1345 N.am        1 BAX      -0.2199
     28 O15       -21.6951    0.2076   20.1988 O.2         1 BAX      -0.3813
     29 C23       -18.8810   -6.1646   17.8728 C.ar        1 BAX       0.1379
     30 N26       -16.5872   -7.1037   16.6555 N.ar        1 BAX      -0.2925
     31 C29       -15.9488   -8.3853   18.5605 C.2         1 BAX       0.2205
     32 O32       -16.1914   -8.8099   19.6851 O.2         1 BAX      -0.3791
     33 H1        -20.6303    4.1424   18.2056 H           1 BAX       0.0706
     34 H2        -23.3317    2.0806   20.6769 H           1 BAX       0.0758
     35 H3        -23.8401    4.1066   21.8341 H           1 BAX       0.0670
     36 H4        -18.7733   -1.3683   18.9252 H           1 BAX       0.0480
     37 H5        -18.3059   -3.7240   19.1279 H           1 BAX       0.0520
     38 H6        -22.2665   -4.6163   17.9975 H           1 BAX       0.0520
     39 H7        -22.7502   -2.2595   17.8252 H           1 BAX       0.0480
     40 H8        -19.1871   -5.1643   16.0217 H           1 BAX       0.0673
     41 H9        -17.1443   -6.0084   14.9977 H           1 BAX       0.0803
     42 H10       -18.2467   -7.3158   19.5123 H           1 BAX       0.0696
     43 H11       -14.6829   -8.4211   17.0494 H           1 BAX       0.1844
     44 H12       -13.0679   -9.7852   17.7251 H           1 BAX       0.0484
     45 H13       -14.3064  -10.6406   18.6649 H           1 BAX       0.0484
     46 H14       -13.4325   -9.2599   19.3805 H           1 BAX       0.0484
     47 H15       -21.2220    1.9832   17.7470 H           1 BAX       0.2266
     48 H16       -20.8505    0.0491   17.2469 H           1 BAX       0.2230
@<TRIPOS>BOND
     1     2     1  ar
     2     1    20  ar
     3     2     3  ar
     4    26     2   1
     5     3     4  ar
     6     4    19  ar
     7     5    26  am
     8    27     5  am
     9     5    28   2
    10     7     6  ar
    11    11     6  ar
    12     6    27   1
    13     8     7  ar
    14     9     8  ar
    15     9    10  ar
    16    12     9   1
    17    10    11  ar
    18    29    12   1
    19    14    13  ar
    20    29    13  ar
    21    30    14  ar
    22    15    16  ar
    23    15    30  ar
    24    31    15   1
    25    16    29  ar
    26    17    18   1
    27    17    31  am
    28    19    20  ar
    29    19    25   1
    30    20    21   1
    31    21    22   1
    32    21    23   1
    33    21    24   1
    34    31    32   2
    35     1    33   1
    36     3    34   1
    37     4    35   1
    38     7    36   1
    39     8    37   1
    40    10    38   1
    41    11    39   1
    42    13    40   1
    43    14    41   1
    44    16    42   1
    45    17    43   1
    46    18    44   1
    47    18    45   1
    48    18    46   1
    49    26    47   1
    50    27    48   1
@<TRIPOS>SUBSTRUCTURE
     1  BAX      1

