@<TRIPOS>MOLECULE
3gcs_ligand_034
    48    50
SMALL
GAST_HUCK
****
This file was generated by PARSER (from files_GN.cpp)

@<TRIPOS>ATOM
      1 C1        -15.1465   -7.6563   16.6821 C.ar        1 BAX      -0.0127
      2 C2        -16.2516   -6.8843   17.1201 C.ar        1 BAX       0.0959
      3 C3        -16.3978   -6.6637   18.5052 C.ar        1 BAX      -0.0108
      4 C4        -15.4439   -7.1374   19.4161 C.ar        1 BAX      -0.0291
      5 C13       -17.3636   -6.2601   15.0099 C.2         1 BAX       0.3148
      6 C16       -18.7395   -5.3061   13.2783 C.ar        1 BAX       0.0577
      7 C17       -18.9384   -4.0072   12.7614 C.ar        1 BAX      -0.0478
      8 C18       -19.4039   -3.8294   11.4454 C.ar        1 BAX      -0.0404
      9 C19       -19.7167   -4.9480   10.6458 C.ar        1 BAX       0.1047
     10 C20       -19.5247   -6.2443   11.1606 C.ar        1 BAX      -0.0404
     11 C21       -19.0495   -6.4227   12.4693 C.ar        1 BAX      -0.0478
     12 O22       -20.1791   -4.8028    9.3647 O.3         1 BAX      -0.2564
     13 C24       -22.4658   -5.5990    9.6358 C.ar        1 BAX       0.0024
     14 C25       -23.8364   -5.3305    9.5151 C.ar        1 BAX       0.0057
     15 C27       -23.3928   -3.1138    8.7011 C.ar        1 BAX       0.1117
     16 C28       -22.0003   -3.3529    8.8229 C.ar        1 BAX       0.0183
     17 N30       -25.2341   -1.7538    8.1260 N.am        1 BAX      -0.2874
     18 C31       -25.8944   -0.6000    7.6180 C.3         1 BAX       0.0193
     19 C5        -14.3332   -7.8748   18.9668 C.ar        1 BAX       0.0592
     20 C6        -14.1717   -8.1649   17.5822 C.ar        1 BAX       0.0462
     21 C7        -13.0179   -8.9834   17.0848 C.3         1 BAX       0.3715
     22 F8        -12.9622   -9.1592   15.7205 F           1 BAX      -0.2224
     23 F9        -11.8232   -8.4014   17.4299 F           1 BAX      -0.2224
     24 F10       -13.0691  -10.2441   17.6281 F           1 BAX      -0.2224
     25 CL11      -13.2344   -8.3664   20.1634 Cl          1 BAX      -0.0539
     26 N12       -17.1942   -6.2839   16.3227 N.am        1 BAX      -0.2087
     27 N14       -18.3185   -5.4517   14.5680 N.am        1 BAX      -0.2199
     28 O15       -16.6604   -6.8896   14.2311 O.2         1 BAX      -0.3813
     29 C23       -21.5340   -4.5933    9.3021 C.ar        1 BAX       0.1379
     30 N26       -24.2404   -4.1213    9.0584 N.ar        1 BAX      -0.2925
     31 C29       -23.9202   -1.9155    8.2257 C.2         1 BAX       0.2205
     32 O32       -23.1709   -1.0078    7.8831 O.2         1 BAX      -0.3791
     33 H1        -15.0471   -7.8574   15.6895 H           1 BAX       0.0706
     34 H2        -17.1970   -6.1333   18.8668 H           1 BAX       0.0758
     35 H3        -15.5615   -6.9269   20.4109 H           1 BAX       0.0670
     36 H4        -18.7374   -3.1848   13.3399 H           1 BAX       0.0480
     37 H5        -19.5326   -2.8847   11.0748 H           1 BAX       0.0520
     38 H6        -19.7621   -7.0608   10.5907 H           1 BAX       0.0520
     39 H7        -18.9674   -7.3706   12.8462 H           1 BAX       0.0480
     40 H8        -22.1530   -6.5150    9.9657 H           1 BAX       0.0673
     41 H9        -24.5304   -6.0412    9.7571 H           1 BAX       0.0803
     42 H10       -21.3193   -2.6323    8.5682 H           1 BAX       0.0696
     43 H11       -25.7993   -2.4886    8.4158 H           1 BAX       0.1844
     44 H12       -26.9725   -0.7511    7.6735 H           1 BAX       0.0484
     45 H13       -25.6169   -0.4358    6.5738 H           1 BAX       0.0484
     46 H14       -25.6309    0.2801    8.2081 H           1 BAX       0.0484
     47 H15       -17.8413   -5.7467   16.8069 H           1 BAX       0.2266
     48 H16       -18.7279   -4.8643   15.2211 H           1 BAX       0.2230
@<TRIPOS>BOND
     1     2     1  ar
     2     1    20  ar
     3     2     3  ar
     4    26     2   1
     5     3     4  ar
     6     4    19  ar
     7     5    26  am
     8    27     5  am
     9     5    28   2
    10     7     6  ar
    11    11     6  ar
    12     6    27   1
    13     8     7  ar
    14     9     8  ar
    15     9    10  ar
    16    12     9   1
    17    10    11  ar
    18    29    12   1
    19    14    13  ar
    20    29    13  ar
    21    30    14  ar
    22    15    16  ar
    23    15    30  ar
    24    31    15   1
    25    16    29  ar
    26    17    18   1
    27    17    31  am
    28    19    20  ar
    29    19    25   1
    30    20    21   1
    31    21    22   1
    32    21    23   1
    33    21    24   1
    34    31    32   2
    35     1    33   1
    36     3    34   1
    37     4    35   1
    38     7    36   1
    39     8    37   1
    40    10    38   1
    41    11    39   1
    42    13    40   1
    43    14    41   1
    44    16    42   1
    45    17    43   1
    46    18    44   1
    47    18    45   1
    48    18    46   1
    49    26    47   1
    50    27    48   1
@<TRIPOS>SUBSTRUCTURE
     1  BAX      1

