@<TRIPOS>MOLECULE
3gcs_ligand_009
    48    50
SMALL
GAST_HUCK
****
This file was generated by PARSER (from files_GN.cpp)

@<TRIPOS>ATOM
      1 C1        -21.0000   -4.1828   12.0800 C.ar        1 BAX      -0.0127
      2 C2        -20.6300   -3.1769   13.0030 C.ar        1 BAX       0.0959
      3 C3        -20.1076   -1.9669   12.4953 C.ar        1 BAX      -0.0108
      4 C4        -19.9774   -1.7634   11.1137 C.ar        1 BAX      -0.0291
      5 C13       -20.8790   -2.6546   15.3780 C.2         1 BAX       0.3148
      6 C16       -21.0616   -2.5931   17.7534 C.ar        1 BAX       0.0577
      7 C17       -22.3469   -2.3191   18.2663 C.ar        1 BAX      -0.0478
      8 C18       -22.4888   -1.6512   19.4975 C.ar        1 BAX      -0.0404
      9 C19       -21.3447   -1.2548   20.2259 C.ar        1 BAX       0.1047
     10 C20       -20.0624   -1.5781   19.7381 C.ar        1 BAX      -0.0404
     11 C21       -19.9228   -2.2502   18.5108 C.ar        1 BAX      -0.0478
     12 O22       -21.4637   -0.5326   21.3854 O.3         1 BAX      -0.2564
     13 C24       -22.0725    1.5439   20.1399 C.ar        1 BAX       0.0024
     14 C25       -22.5108    2.8733   20.2263 C.ar        1 BAX       0.0057
     15 C27       -22.5294    2.7681   22.6250 C.ar        1 BAX       0.1117
     16 C28       -22.1072    1.4169   22.5660 C.ar        1 BAX       0.0183
     17 N30       -23.1301    4.7293   23.7821 N.am        1 BAX      -0.2874
     18 C31       -23.4013    5.5656   24.8994 C.3         1 BAX       0.0193
     19 C5        -20.3782   -2.7613   10.2024 C.ar        1 BAX       0.0592
     20 C6        -20.9008   -4.0001   10.6746 C.ar        1 BAX       0.0462
     21 C7        -21.3293   -5.0849    9.7373 C.3         1 BAX       0.3715
     22 F8        -21.7996   -6.2292   10.3382 F           1 BAX      -0.2224
     23 F9        -22.3470   -4.6391    8.9290 F           1 BAX      -0.2224
     24 F10       -20.2773   -5.4808    8.9466 F           1 BAX      -0.2224
     25 CL11      -20.2058   -2.3921    8.5526 Cl          1 BAX      -0.0539
     26 N12       -20.7416   -3.4653   14.3383 N.am        1 BAX      -0.2087
     27 N14       -20.9222   -3.2326   16.5667 N.am        1 BAX      -0.2199
     28 O15       -20.9933   -1.4410   15.2649 O.2         1 BAX      -0.3813
     29 C23       -21.8753    0.7866   21.3243 C.ar        1 BAX       0.1379
     30 N26       -22.7146    3.4243   21.4459 N.ar        1 BAX      -0.2925
     31 C29       -22.7572    3.4533   23.8154 C.2         1 BAX       0.2205
     32 O32       -22.5944    2.8880   24.8914 O.2         1 BAX      -0.3791
     33 H1        -21.3593   -5.0664   12.4535 H           1 BAX       0.0706
     34 H2        -19.7828   -1.2291   13.1208 H           1 BAX       0.0758
     35 H3        -19.5785   -0.8823   10.7810 H           1 BAX       0.0670
     36 H4        -23.1806   -2.6023   17.7499 H           1 BAX       0.0480
     37 H5        -23.4220   -1.4262   19.8454 H           1 BAX       0.0520
     38 H6        -19.2324   -1.3203   20.2760 H           1 BAX       0.0520
     39 H7        -18.9874   -2.4762   18.1690 H           1 BAX       0.0480
     40 H8        -21.9072    1.1429   19.2161 H           1 BAX       0.0673
     41 H9        -22.6679    3.4224   19.3820 H           1 BAX       0.0803
     42 H10       -21.9575    0.8832   23.4276 H           1 BAX       0.0696
     43 H11       -23.2289    5.1350   22.9053 H           1 BAX       0.1844
     44 H12       -23.6386    6.5654   24.5349 H           1 BAX       0.0484
     45 H13       -22.5298    5.6312   25.5529 H           1 BAX       0.0484
     46 H14       -24.2567    5.1861   25.4604 H           1 BAX       0.0484
     47 H15       -20.7683   -4.4131   14.5555 H           1 BAX       0.2266
     48 H16       -20.8832   -4.2002   16.5918 H           1 BAX       0.2230
@<TRIPOS>BOND
     1     2     1  ar
     2     1    20  ar
     3     2     3  ar
     4    26     2   1
     5     3     4  ar
     6     4    19  ar
     7     5    26  am
     8    27     5  am
     9     5    28   2
    10     7     6  ar
    11    11     6  ar
    12     6    27   1
    13     8     7  ar
    14     9     8  ar
    15     9    10  ar
    16    12     9   1
    17    10    11  ar
    18    29    12   1
    19    14    13  ar
    20    29    13  ar
    21    30    14  ar
    22    15    16  ar
    23    15    30  ar
    24    31    15   1
    25    16    29  ar
    26    17    18   1
    27    17    31  am
    28    19    20  ar
    29    19    25   1
    30    20    21   1
    31    21    22   1
    32    21    23   1
    33    21    24   1
    34    31    32   2
    35     1    33   1
    36     3    34   1
    37     4    35   1
    38     7    36   1
    39     8    37   1
    40    10    38   1
    41    11    39   1
    42    13    40   1
    43    14    41   1
    44    16    42   1
    45    17    43   1
    46    18    44   1
    47    18    45   1
    48    18    46   1
    49    26    47   1
    50    27    48   1
@<TRIPOS>SUBSTRUCTURE
     1  BAX      1

