@<TRIPOS>MOLECULE
3gcs_ligand_024
    48    50
SMALL
GAST_HUCK
****
This file was generated by PARSER (from files_GN.cpp)

@<TRIPOS>ATOM
      1 C1        -13.3424   -9.1168   15.9274 C.ar        1 BAX      -0.0127
      2 C2        -13.2264   -7.7312   15.7109 C.ar        1 BAX       0.0959
      3 C3        -13.5128   -6.8391   16.7606 C.ar        1 BAX      -0.0108
      4 C4        -13.8888   -7.3336   18.0224 C.ar        1 BAX      -0.0291
      5 C13       -13.6165   -6.8176   13.5501 C.2         1 BAX       0.3148
      6 C16       -13.6370   -5.9770   11.3200 C.ar        1 BAX       0.0577
      7 C17       -14.3675   -6.8572   10.4941 C.ar        1 BAX      -0.0478
      8 C18       -14.9352   -6.3936    9.2928 C.ar        1 BAX      -0.0404
      9 C19       -14.8001   -5.0416    8.9170 C.ar        1 BAX       0.1047
     10 C20       -14.0621   -4.1622    9.7398 C.ar        1 BAX      -0.0404
     11 C21       -13.4792   -4.6287   10.9336 C.ar        1 BAX      -0.0478
     12 O22       -15.3297   -4.6191    7.7277 O.3         1 BAX      -0.2564
     13 C24       -16.4844   -2.5217    7.7578 C.ar        1 BAX       0.0024
     14 C25       -17.6861   -1.8092    7.9154 C.ar        1 BAX       0.0057
     15 C27       -18.9102   -3.8397    8.3198 C.ar        1 BAX       0.1117
     16 C28       -17.7161   -4.5836    8.1559 C.ar        1 BAX       0.0183
     17 N30       -21.2126   -3.6716    8.8044 N.am        1 BAX      -0.2874
     18 C31       -22.5164   -4.1396    9.1271 C.3         1 BAX       0.0193
     19 C5        -13.9860   -8.7219   18.2454 C.ar        1 BAX       0.0592
     20 C6        -13.7399   -9.6414   17.1829 C.ar        1 BAX       0.0462
     21 C7        -13.8621  -11.1187   17.3776 C.3         1 BAX       0.3715
     22 F8        -13.7371  -11.8682   16.2310 F           1 BAX      -0.2224
     23 F9        -12.8941  -11.5562   18.2495 F           1 BAX      -0.2224
     24 F10       -15.0914  -11.4510   17.8893 F           1 BAX      -0.2224
     25 CL11      -14.3933   -9.2087   19.8195 Cl          1 BAX      -0.0539
     26 N12       -12.8162   -7.2666   14.5036 N.am        1 BAX      -0.2087
     27 N14       -13.0169   -6.4198   12.4388 N.am        1 BAX      -0.2199
     28 O15       -14.8361   -6.7662   13.6882 O.2         1 BAX      -0.3813
     29 C23       -16.4947   -3.9227    7.8965 C.ar        1 BAX       0.1379
     30 N26       -18.8296   -2.4827    8.1890 N.ar        1 BAX      -0.2925
     31 C29       -20.1362   -4.4288    8.6112 C.2         1 BAX       0.2205
     32 O32       -20.2308   -5.6478    8.7059 O.2         1 BAX      -0.3791
     33 H1        -13.1374   -9.7385   15.1437 H           1 BAX       0.0706
     34 H2        -13.4333   -5.8294   16.6194 H           1 BAX       0.0758
     35 H3        -14.0778   -6.6681   18.7764 H           1 BAX       0.0670
     36 H4        -14.4522   -7.8449   10.7413 H           1 BAX       0.0480
     37 H5        -15.4367   -7.0450    8.6879 H           1 BAX       0.0520
     38 H6        -13.9430   -3.1830    9.4680 H           1 BAX       0.0520
     39 H7        -12.9449   -3.9815   11.5205 H           1 BAX       0.0480
     40 H8        -15.6172   -2.0252    7.5501 H           1 BAX       0.0673
     41 H9        -17.7031   -0.7924    7.8261 H           1 BAX       0.0803
     42 H10       -17.7199   -5.6035    8.2376 H           1 BAX       0.0696
     43 H11       -21.0993   -2.7124    8.7281 H           1 BAX       0.1844
     44 H12       -23.1816   -3.2838    9.2395 H           1 BAX       0.0484
     45 H13       -22.5000   -4.6972   10.0671 H           1 BAX       0.0484
     46 H14       -22.8993   -4.7821    8.3312 H           1 BAX       0.0484
     47 H15       -11.8722   -7.3321   14.2887 H           1 BAX       0.2266
     48 H16       -12.0468   -6.3927   12.4488 H           1 BAX       0.2230
@<TRIPOS>BOND
     1     2     1  ar
     2     1    20  ar
     3     2     3  ar
     4    26     2   1
     5     3     4  ar
     6     4    19  ar
     7     5    26  am
     8    27     5  am
     9     5    28   2
    10     7     6  ar
    11    11     6  ar
    12     6    27   1
    13     8     7  ar
    14     9     8  ar
    15     9    10  ar
    16    12     9   1
    17    10    11  ar
    18    29    12   1
    19    14    13  ar
    20    29    13  ar
    21    30    14  ar
    22    15    16  ar
    23    15    30  ar
    24    31    15   1
    25    16    29  ar
    26    17    18   1
    27    17    31  am
    28    19    20  ar
    29    19    25   1
    30    20    21   1
    31    21    22   1
    32    21    23   1
    33    21    24   1
    34    31    32   2
    35     1    33   1
    36     3    34   1
    37     4    35   1
    38     7    36   1
    39     8    37   1
    40    10    38   1
    41    11    39   1
    42    13    40   1
    43    14    41   1
    44    16    42   1
    45    17    43   1
    46    18    44   1
    47    18    45   1
    48    18    46   1
    49    26    47   1
    50    27    48   1
@<TRIPOS>SUBSTRUCTURE
     1  BAX      1

