@<TRIPOS>MOLECULE
3gcs_ligand_050
    48    50
SMALL
GAST_HUCK
****
This file was generated by PARSER (from files_GN.cpp)

@<TRIPOS>ATOM
      1 C1         -9.8906   -9.2732   18.2334 C.ar        1 BAX      -0.0127
      2 C2        -10.2458   -8.0826   18.9045 C.ar        1 BAX       0.0959
      3 C3         -9.2185   -7.1893   19.2770 C.ar        1 BAX      -0.0108
      4 C4         -7.8801   -7.4886   18.9887 C.ar        1 BAX      -0.0291
      5 C13       -12.5981   -7.8647   18.4620 C.2         1 BAX       0.3148
      6 C16       -14.8980   -7.1532   18.2675 C.ar        1 BAX       0.0577
      7 C17       -14.9342   -6.7308   16.9225 C.ar        1 BAX      -0.0478
      8 C18       -16.1578   -6.5463   16.2663 C.ar        1 BAX      -0.0404
      9 C19       -17.3855   -6.7498   16.9407 C.ar        1 BAX       0.1047
     10 C20       -17.3447   -7.1535   18.2962 C.ar        1 BAX      -0.0404
     11 C21       -16.1159   -7.3383   18.9575 C.ar        1 BAX      -0.0478
     12 O22       -18.6322   -6.6482   16.3621 O.3         1 BAX      -0.2564
     13 C24       -19.1803   -4.4917   15.4173 C.ar        1 BAX       0.0024
     14 C25       -19.2447   -3.6708   14.2838 C.ar        1 BAX       0.0057
     15 C27       -18.5367   -5.4690   12.8537 C.ar        1 BAX       0.1117
     16 C28       -18.4893   -6.3320   13.9737 C.ar        1 BAX       0.0183
     17 N30       -18.0643   -5.0203   10.5882 N.am        1 BAX      -0.2874
     18 C31       -17.6751   -5.3284    9.2535 C.3         1 BAX       0.0193
     19 C5         -7.5359   -8.7042   18.3625 C.ar        1 BAX       0.0592
     20 C6         -8.5471   -9.6112   17.9404 C.ar        1 BAX       0.0462
     21 C7         -8.2367  -10.9203   17.2857 C.3         1 BAX       0.3715
     22 F8         -9.3257  -11.5339   16.7039 F           1 BAX      -0.2224
     23 F9         -7.3210  -10.8161   16.2726 F           1 BAX      -0.2224
     24 F10        -7.7379  -11.7841   18.2310 F           1 BAX      -0.2224
     25 CL11       -5.8836   -9.0276   18.1972 Cl          1 BAX      -0.0539
     26 N12       -11.5301   -7.7547   19.2302 N.am        1 BAX      -0.2087
     27 N14       -13.7215   -7.3442   18.9372 N.am        1 BAX      -0.2199
     28 O15       -12.5604   -8.3755   17.3501 O.2         1 BAX      -0.3813
     29 C23       -18.7649   -5.8294   15.2624 C.ar        1 BAX       0.1379
     30 N26       -18.9227   -4.1761   13.0623 N.ar        1 BAX      -0.2925
     31 C29       -18.2095   -5.8949   11.5715 C.2         1 BAX       0.2205
     32 O32       -18.0120   -7.0872   11.3603 O.2         1 BAX      -0.3791
     33 H1        -10.6360   -9.9308   18.0103 H           1 BAX       0.0706
     34 H2         -9.4435   -6.3124   19.7481 H           1 BAX       0.0758
     35 H3         -7.1552   -6.8202   19.2694 H           1 BAX       0.0670
     36 H4        -14.0772   -6.5416   16.4090 H           1 BAX       0.0480
     37 H5        -16.1318   -6.2568   15.2863 H           1 BAX       0.0520
     38 H6        -18.2193   -7.3243   18.8044 H           1 BAX       0.0520
     39 H7        -16.1198   -7.6361   19.9316 H           1 BAX       0.0480
     40 H8        -19.4132   -4.1193   16.3377 H           1 BAX       0.0673
     41 H9        -19.5243   -2.6897   14.3634 H           1 BAX       0.0803
     42 H10       -18.2085   -7.3096   13.8770 H           1 BAX       0.0696
     43 H11       -18.2266   -4.0810   10.7936 H           1 BAX       0.1844
     44 H12       -17.6577   -4.4028    8.6627 H           1 BAX       0.0484
     45 H13       -18.3821   -6.0193    8.7908 H           1 BAX       0.0484
     46 H14       -16.6735   -5.7650    9.2432 H           1 BAX       0.0484
     47 H15       -11.6493   -7.2326   20.0426 H           1 BAX       0.2266
     48 H16       -13.7086   -7.0652   19.8694 H           1 BAX       0.2230
@<TRIPOS>BOND
     1     2     1  ar
     2     1    20  ar
     3     2     3  ar
     4    26     2   1
     5     3     4  ar
     6     4    19  ar
     7     5    26  am
     8    27     5  am
     9     5    28   2
    10     7     6  ar
    11    11     6  ar
    12     6    27   1
    13     8     7  ar
    14     9     8  ar
    15     9    10  ar
    16    12     9   1
    17    10    11  ar
    18    29    12   1
    19    14    13  ar
    20    29    13  ar
    21    30    14  ar
    22    15    16  ar
    23    15    30  ar
    24    31    15   1
    25    16    29  ar
    26    17    18   1
    27    17    31  am
    28    19    20  ar
    29    19    25   1
    30    20    21   1
    31    21    22   1
    32    21    23   1
    33    21    24   1
    34    31    32   2
    35     1    33   1
    36     3    34   1
    37     4    35   1
    38     7    36   1
    39     8    37   1
    40    10    38   1
    41    11    39   1
    42    13    40   1
    43    14    41   1
    44    16    42   1
    45    17    43   1
    46    18    44   1
    47    18    45   1
    48    18    46   1
    49    26    47   1
    50    27    48   1
@<TRIPOS>SUBSTRUCTURE
     1  BAX      1

