@<TRIPOS>MOLECULE
3gcs_ligand_039
    48    50
SMALL
GAST_HUCK
****
This file was generated by PARSER (from files_GN.cpp)

@<TRIPOS>ATOM
      1 C1        -14.3185   -5.9256    9.1203 C.ar        1 BAX      -0.0127
      2 C2        -13.3453   -5.4486   10.0243 C.ar        1 BAX       0.0959
      3 C3        -12.2231   -4.7603    9.5296 C.ar        1 BAX      -0.0108
      4 C4        -12.0629   -4.5736    8.1474 C.ar        1 BAX      -0.0291
      5 C13       -13.7607   -6.6335   12.0848 C.2         1 BAX       0.3148
      6 C16       -13.6986   -7.4115   14.3808 C.ar        1 BAX       0.0577
      7 C17       -14.9078   -7.9997   14.8152 C.ar        1 BAX      -0.0478
      8 C18       -14.9167   -8.8514   15.9345 C.ar        1 BAX      -0.0404
      9 C19       -13.7196   -9.1400   16.6310 C.ar        1 BAX       0.1047
     10 C20       -12.5097   -8.5788   16.1756 C.ar        1 BAX      -0.0404
     11 C21       -12.5045   -7.7055   15.0735 C.ar        1 BAX      -0.0478
     12 O22       -13.6666   -9.9902   17.7112 O.3         1 BAX      -0.2564
     13 C24       -13.8690   -8.5233   19.6382 C.ar        1 BAX       0.0024
     14 C25       -14.6518   -8.0875   20.7181 C.ar        1 BAX       0.0057
     15 C27       -16.3997   -9.6471   20.1695 C.ar        1 BAX       0.1117
     16 C28       -15.6088  -10.1359   19.0988 C.ar        1 BAX       0.0183
     17 N30       -18.3071   -9.7933   21.5682 N.am        1 BAX      -0.2874
     18 C31       -19.5738  -10.2866   22.0006 C.3         1 BAX       0.0193
     19 C5        -13.0516   -5.0239    7.2461 C.ar        1 BAX       0.0592
     20 C6        -14.2128   -5.6995    7.7241 C.ar        1 BAX       0.0462
     21 C7        -15.3119   -6.1315    6.8055 C.3         1 BAX       0.3715
     22 F8        -16.3801   -6.7459    7.4207 F           1 BAX      -0.2224
     23 F9        -15.8300   -5.0365    6.1596 F           1 BAX      -0.2224
     24 F10       -14.8446   -7.0233    5.8713 F           1 BAX      -0.2224
     25 CL11      -12.7820   -4.6867    5.6019 Cl          1 BAX      -0.0539
     26 N12       -13.4741   -5.5590   11.3752 N.am        1 BAX      -0.2087
     27 N14       -13.6307   -6.4792   13.3908 N.am        1 BAX      -0.2199
     28 O15       -13.9623   -7.7297   11.5712 O.2         1 BAX      -0.3813
     29 C23       -14.3683   -9.5383   18.7980 C.ar        1 BAX       0.1379
     30 N26       -15.8700   -8.6466   20.9300 N.ar        1 BAX      -0.2925
     31 C29       -17.6722  -10.1403   20.4540 C.2         1 BAX       0.2205
     32 O32       -18.2257  -10.9069   19.6737 O.2         1 BAX      -0.3791
     33 H1        -15.1369   -6.4031    9.5000 H           1 BAX       0.0706
     34 H2        -11.5025   -4.4103   10.1661 H           1 BAX       0.0758
     35 H3        -11.2247   -4.0982    7.8044 H           1 BAX       0.0670
     36 H4        -15.7866   -7.7792   14.3458 H           1 BAX       0.0480
     37 H5        -15.7992   -9.2570   16.2504 H           1 BAX       0.0520
     38 H6        -11.6319   -8.7977   16.6490 H           1 BAX       0.0520
     39 H7        -11.6191   -7.2972   14.7603 H           1 BAX       0.0480
     40 H8        -12.9604   -8.0932   19.4517 H           1 BAX       0.0673
     41 H9        -14.3176   -7.3453   21.3329 H           1 BAX       0.0803
     42 H10       -15.9310  -10.9130   18.5206 H           1 BAX       0.0696
     43 H11       -17.8546   -9.1775   22.1587 H           1 BAX       0.1844
     44 H12       -19.8757   -9.7671   22.9092 H           1 BAX       0.0484
     45 H13       -19.5100  -11.3531   22.2148 H           1 BAX       0.0484
     46 H14       -20.3376  -10.1156   21.2458 H           1 BAX       0.0484
     47 H15       -13.1888   -4.7850   11.8905 H           1 BAX       0.2266
     48 H16       -13.3714   -5.5914   13.6775 H           1 BAX       0.2230
@<TRIPOS>BOND
     1     2     1  ar
     2     1    20  ar
     3     2     3  ar
     4    26     2   1
     5     3     4  ar
     6     4    19  ar
     7     5    26  am
     8    27     5  am
     9     5    28   2
    10     7     6  ar
    11    11     6  ar
    12     6    27   1
    13     8     7  ar
    14     9     8  ar
    15     9    10  ar
    16    12     9   1
    17    10    11  ar
    18    29    12   1
    19    14    13  ar
    20    29    13  ar
    21    30    14  ar
    22    15    16  ar
    23    15    30  ar
    24    31    15   1
    25    16    29  ar
    26    17    18   1
    27    17    31  am
    28    19    20  ar
    29    19    25   1
    30    20    21   1
    31    21    22   1
    32    21    23   1
    33    21    24   1
    34    31    32   2
    35     1    33   1
    36     3    34   1
    37     4    35   1
    38     7    36   1
    39     8    37   1
    40    10    38   1
    41    11    39   1
    42    13    40   1
    43    14    41   1
    44    16    42   1
    45    17    43   1
    46    18    44   1
    47    18    45   1
    48    18    46   1
    49    26    47   1
    50    27    48   1
@<TRIPOS>SUBSTRUCTURE
     1  BAX      1

