@<TRIPOS>MOLECULE
3gcs_ligand_038
    48    50
SMALL
GAST_HUCK
****
This file was generated by PARSER (from files_GN.cpp)

@<TRIPOS>ATOM
      1 C1        -22.4491    3.3567   10.8422 C.ar        1 BAX      -0.0127
      2 C2        -21.5495    2.4890   10.1734 C.ar        1 BAX       0.0959
      3 C3        -20.9793    2.9286    8.9629 C.ar        1 BAX      -0.0108
      4 C4        -21.2506    4.2130    8.4693 C.ar        1 BAX      -0.0291
      5 C13       -21.1440    0.8042   11.8758 C.2         1 BAX       0.3148
      6 C16       -20.8151   -1.2315   13.2322 C.ar        1 BAX       0.0577
      7 C17       -20.8024   -0.7013   14.5465 C.ar        1 BAX      -0.0478
      8 C18       -20.6612   -1.5371   15.6658 C.ar        1 BAX      -0.0404
      9 C19       -20.5989   -2.9377   15.5228 C.ar        1 BAX       0.1047
     10 C20       -20.6001   -3.4788   14.2213 C.ar        1 BAX      -0.0404
     11 C21       -20.7008   -2.6331   13.0961 C.ar        1 BAX      -0.0478
     12 O22       -20.5074   -3.7892   16.6037 O.3         1 BAX      -0.2564
     13 C24       -22.7738   -3.7897   17.4979 C.ar        1 BAX       0.0024
     14 C25       -23.6332   -3.4279   18.5486 C.ar        1 BAX       0.0057
     15 C27       -21.7983   -2.5729   19.8455 C.ar        1 BAX       0.1117
     16 C28       -20.9050   -2.9382   18.8070 C.ar        1 BAX       0.0183
     17 N30       -22.2691   -1.5862   21.9405 N.am        1 BAX      -0.2874
     18 C31       -21.9653   -0.9423   23.1751 C.3         1 BAX       0.0193
     19 C5        -22.1109    5.0842    9.1665 C.ar        1 BAX       0.0592
     20 C6        -22.7345    4.6646   10.3762 C.ar        1 BAX       0.0462
     21 C7        -23.6670    5.5527   11.1434 C.3         1 BAX       0.3715
     22 F8        -24.1873    4.9999   12.2922 F           1 BAX      -0.2224
     23 F9        -23.0215    6.6994   11.5382 F           1 BAX      -0.2224
     24 F10       -24.7464    5.8979   10.3674 F           1 BAX      -0.2224
     25 CL11      -22.3632    6.6156    8.4785 Cl          1 BAX      -0.0539
     26 N12       -21.2437    1.2267   10.6217 N.am        1 BAX      -0.2087
     27 N14       -20.9272   -0.4929   12.0733 N.am        1 BAX      -0.2199
     28 O15       -21.2380    1.6004   12.7999 O.2         1 BAX      -0.3813
     29 C23       -21.3928   -3.5303   17.6236 C.ar        1 BAX       0.1379
     30 N26       -23.1221   -2.8423   19.6596 N.ar        1 BAX      -0.2925
     31 C29       -21.3848   -1.9398   21.0139 C.2         1 BAX       0.2205
     32 O32       -20.1974   -1.6851   21.1874 O.2         1 BAX      -0.3791
     33 H1        -22.9183    3.0136   11.6796 H           1 BAX       0.0706
     34 H2        -20.3433    2.3188    8.4415 H           1 BAX       0.0758
     35 H3        -20.8124    4.5110    7.5939 H           1 BAX       0.0670
     36 H4        -20.8890    0.2930   14.7289 H           1 BAX       0.0480
     37 H5        -20.6246   -1.1120   16.5953 H           1 BAX       0.0520
     38 H6        -20.5317   -4.4889   14.0886 H           1 BAX       0.0520
     39 H7        -20.7101   -3.0599   12.1650 H           1 BAX       0.0480
     40 H8        -23.1516   -4.2130   16.6482 H           1 BAX       0.0673
     41 H9        -24.6392   -3.5853   18.4773 H           1 BAX       0.0803
     42 H10       -19.9032   -2.7427   18.8828 H           1 BAX       0.0696
     43 H11       -23.2027   -1.7893   21.7709 H           1 BAX       0.1844
     44 H12       -22.8887   -0.7758   23.7293 H           1 BAX       0.0484
     45 H13       -21.4848    0.0224   22.9990 H           1 BAX       0.0484
     46 H14       -21.3080   -1.5736   23.7747 H           1 BAX       0.0484
     47 H15       -21.0521    0.5679    9.9333 H           1 BAX       0.2266
     48 H16       -20.8749   -1.0130   11.2560 H           1 BAX       0.2230
@<TRIPOS>BOND
     1     2     1  ar
     2     1    20  ar
     3     2     3  ar
     4    26     2   1
     5     3     4  ar
     6     4    19  ar
     7     5    26  am
     8    27     5  am
     9     5    28   2
    10     7     6  ar
    11    11     6  ar
    12     6    27   1
    13     8     7  ar
    14     9     8  ar
    15     9    10  ar
    16    12     9   1
    17    10    11  ar
    18    29    12   1
    19    14    13  ar
    20    29    13  ar
    21    30    14  ar
    22    15    16  ar
    23    15    30  ar
    24    31    15   1
    25    16    29  ar
    26    17    18   1
    27    17    31  am
    28    19    20  ar
    29    19    25   1
    30    20    21   1
    31    21    22   1
    32    21    23   1
    33    21    24   1
    34    31    32   2
    35     1    33   1
    36     3    34   1
    37     4    35   1
    38     7    36   1
    39     8    37   1
    40    10    38   1
    41    11    39   1
    42    13    40   1
    43    14    41   1
    44    16    42   1
    45    17    43   1
    46    18    44   1
    47    18    45   1
    48    18    46   1
    49    26    47   1
    50    27    48   1
@<TRIPOS>SUBSTRUCTURE
     1  BAX      1

