@<TRIPOS>MOLECULE
3gcs_ligand_049
    48    50
SMALL
GAST_HUCK
****
This file was generated by PARSER (from files_GN.cpp)

@<TRIPOS>ATOM
      1 C1        -14.4339   -9.3243   18.6881 C.ar        1 BAX      -0.0127
      2 C2        -14.2368   -7.9962   19.1217 C.ar        1 BAX       0.0959
      3 C3        -12.9688   -7.4089   18.9976 C.ar        1 BAX      -0.0108
      4 C4        -11.9306   -8.1124   18.3713 C.ar        1 BAX      -0.0291
      5 C13       -16.3605   -6.9263   18.9617 C.2         1 BAX       0.3148
      6 C16       -18.2158   -5.3614   19.0346 C.ar        1 BAX       0.0577
      7 C17       -19.2383   -6.0306   18.3265 C.ar        1 BAX      -0.0478
      8 C18       -20.4216   -5.3548   17.9866 C.ar        1 BAX      -0.0404
      9 C19       -20.6020   -3.9993   18.3421 C.ar        1 BAX       0.1047
     10 C20       -19.5659   -3.3157   19.0026 C.ar        1 BAX      -0.0404
     11 C21       -18.3959   -3.9991   19.3665 C.ar        1 BAX      -0.0478
     12 O22       -21.8071   -3.3641   18.1968 O.3         1 BAX      -0.2564
     13 C24       -24.1433   -3.3857   18.6022 C.ar        1 BAX       0.0024
     14 C25       -25.2670   -3.8407   19.3115 C.ar        1 BAX       0.0057
     15 C27       -23.8980   -5.2480   20.6844 C.ar        1 BAX       0.1117
     16 C28       -22.7450   -4.7252   20.0556 C.ar        1 BAX       0.0183
     17 N30       -24.9014   -6.6197   22.3328 N.am        1 BAX      -0.2874
     18 C31       -24.8852   -7.6089   23.3615 C.3         1 BAX       0.0193
     19 C5        -12.1355   -9.4209   17.8928 C.ar        1 BAX       0.0592
     20 C6        -13.3911  -10.0679   18.0804 C.ar        1 BAX       0.0462
     21 C7        -13.6343  -11.4774   17.6395 C.3         1 BAX       0.3715
     22 F8        -14.8846  -11.9767   17.9224 F           1 BAX      -0.2224
     23 F9        -13.4930  -11.5754   16.2806 F           1 BAX      -0.2224
     24 F10       -12.7470  -12.3241   18.2566 F           1 BAX      -0.2224
     25 CL11      -10.8281  -10.1284   17.0738 Cl          1 BAX      -0.0539
     26 N12       -15.2450   -7.2270   19.6085 N.am        1 BAX      -0.2087
     27 N14       -17.0982   -5.9756   19.5111 N.am        1 BAX      -0.2199
     28 O15       -16.6256   -7.4077   17.8620 O.2         1 BAX      -0.3813
     29 C23       -22.8577   -3.8256   18.9652 C.ar        1 BAX       0.1379
     30 N26       -25.1049   -4.7577   20.2960 N.ar        1 BAX      -0.2925
     31 C29       -23.8309   -6.2484   21.6443 C.2         1 BAX       0.2205
     32 O32       -22.7661   -6.8248   21.8320 O.2         1 BAX      -0.3791
     33 H1        -15.3605   -9.7391   18.8045 H           1 BAX       0.0706
     34 H2        -12.8129   -6.4420   19.3004 H           1 BAX       0.0758
     35 H3        -11.0395   -7.6339   18.2312 H           1 BAX       0.0670
     36 H4        -19.1541   -7.0272   18.1105 H           1 BAX       0.0480
     37 H5        -21.1812   -5.8665   17.5375 H           1 BAX       0.0520
     38 H6        -19.6908   -2.3400   19.2796 H           1 BAX       0.0520
     39 H7        -17.6837   -3.4950   19.8979 H           1 BAX       0.0480
     40 H8        -24.2628   -2.7423   17.8199 H           1 BAX       0.0673
     41 H9        -26.2037   -3.5237   19.0678 H           1 BAX       0.0803
     42 H10       -21.8157   -5.0274   20.3638 H           1 BAX       0.0696
     43 H11       -25.7531   -6.1869   22.1422 H           1 BAX       0.1844
     44 H12       -25.9034   -7.8806   23.6403 H           1 BAX       0.0484
     45 H13       -24.3587   -7.2240   24.2351 H           1 BAX       0.0484
     46 H14       -24.3699   -8.5022   23.0150 H           1 BAX       0.0484
     47 H15       -15.0550   -6.7171   20.4153 H           1 BAX       0.2266
     48 H16       -16.7370   -5.5985   20.3241 H           1 BAX       0.2230
@<TRIPOS>BOND
     1     2     1  ar
     2     1    20  ar
     3     2     3  ar
     4    26     2   1
     5     3     4  ar
     6     4    19  ar
     7     5    26  am
     8    27     5  am
     9     5    28   2
    10     7     6  ar
    11    11     6  ar
    12     6    27   1
    13     8     7  ar
    14     9     8  ar
    15     9    10  ar
    16    12     9   1
    17    10    11  ar
    18    29    12   1
    19    14    13  ar
    20    29    13  ar
    21    30    14  ar
    22    15    16  ar
    23    15    30  ar
    24    31    15   1
    25    16    29  ar
    26    17    18   1
    27    17    31  am
    28    19    20  ar
    29    19    25   1
    30    20    21   1
    31    21    22   1
    32    21    23   1
    33    21    24   1
    34    31    32   2
    35     1    33   1
    36     3    34   1
    37     4    35   1
    38     7    36   1
    39     8    37   1
    40    10    38   1
    41    11    39   1
    42    13    40   1
    43    14    41   1
    44    16    42   1
    45    17    43   1
    46    18    44   1
    47    18    45   1
    48    18    46   1
    49    26    47   1
    50    27    48   1
@<TRIPOS>SUBSTRUCTURE
     1  BAX      1

