@<TRIPOS>MOLECULE
3gnw_ligand_033
    76    81
SMALL
GAST_HUCK
****
This file was generated by PARSER (from files_GN.cpp)

@<TRIPOS>ATOM
      1 O35        27.7901    2.0717   34.8638 O.2         1 XNC      -0.3687
      2 C16        28.7927    2.5248   35.4225 C.2         1 XNC       0.2510
      3 C17        29.9678    1.7960   35.1203 C.ar        1 XNC       0.1194
      4 C43        30.0861    0.9660   33.9683 C.ar        1 XNC      -0.0209
      5 C42        31.2828    0.2756   33.6906 C.ar        1 XNC      -0.0435
      6 C41        32.3768    0.3950   34.5616 C.ar        1 XNC      -0.0287
      7 C40        32.2605    1.2169   35.6975 C.ar        1 XNC       0.0301
      8 C44        33.3738    1.3764   36.6499 C.3         1 XNC      -0.0144
      9 N39        31.0822    1.8688   35.8981 N.ar        1 XNC      -0.2781
     10 N7         28.5811    3.6037   36.2398 N.am        1 XNC      -0.2078
     11 C4         27.3713    4.2979   36.1350 C.ar        1 XNC       0.0880
     12 C3         26.9802    4.7975   34.8632 C.ar        1 XNC      -0.0607
     13 C2         25.7572    5.4550   34.6773 C.ar        1 XNC      -0.0955
     14 C8         29.4698    4.0607   37.3172 C.3         1 XNC       0.1162
     15 C9         29.0539    3.3439   38.5391 C.2         1 XNC       0.0894
     16 S12        30.2051    2.2733   39.2502 S.o2        1 XNC      -0.0239
     17 O32        31.6506    2.9230   39.3779 O.2         1 XNC      -0.1768
     18 O33        30.3266    0.9556   38.3710 O.2         1 XNC      -0.1768
     19 C13        29.6604    1.7600   40.8882 C.3         1 XNC       0.0705
     20 C14        28.1048    1.7014   40.9698 C.3         1 XNC      -0.0050
     21 C37        27.5184    0.5279   40.1159 C.3         1 XNC      -0.0565
     22 C38        27.7056    1.4656   42.4654 C.3         1 XNC      -0.0565
     23 C15        27.5472    3.0854   40.4876 C.3         1 XNC       0.0036
     24 C10        27.8256    3.4946   39.0968 C.2         1 XNC       0.0422
     25 N11        26.7926    4.1369   38.5236 N.pl3       1 XNC      -0.2908
     26 C5         26.5261    4.5399   37.2536 C.ar        1 XNC       0.1100
     27 C6         25.2861    5.2043   37.0513 C.ar        1 XNC       0.0976
     28 O36        24.4233    5.4229   38.0821 O.3         1 XNC      -0.3423
     29 C1         24.9021    5.6429   35.7708 C.ar        1 XNC      -0.0580
     30 C18        29.7199    5.5498   37.4699 C.ar        1 XNC       0.0130
     31 C23        30.1760    6.1458   38.6810 C.ar        1 XNC       0.1283
     32 F34        30.3122    5.4879   39.7971 F           1 XNC      -0.1917
     33 C22        30.4824    7.5165   38.7450 C.ar        1 XNC      -0.0061
     34 C21        30.2915    8.3445   37.6240 C.ar        1 XNC       0.0849
     35 C20        29.9398    7.7627   36.3931 C.ar        1 XNC      -0.0435
     36 C19        29.6911    6.3815   36.3190 C.ar        1 XNC      -0.0671
     37 O24        30.3588    9.7059   37.7912 O.3         1 XNC      -0.3110
     38 C25        29.0770   10.3356   38.0654 C.3         1 XNC       0.1027
     39 C26        28.2309    9.5458   39.0058 C.ar        1 XNC      -0.0131
     40 C31        27.1802    8.7456   38.5019 C.ar        1 XNC      -0.0578
     41 C30        26.5604    7.7897   39.3243 C.ar        1 XNC      -0.0685
     42 C29        26.9459    7.6525   40.6700 C.ar        1 XNC      -0.0687
     43 C28        27.9584    8.4744   41.1951 C.ar        1 XNC      -0.0685
     44 C27        28.6024    9.4124   40.3655 C.ar        1 XNC      -0.0578
     45 H1         29.3132    0.8665   33.3093 H           1 XNC       0.0705
     46 H2         31.3483   -0.3078   32.8615 H           1 XNC       0.0729
     47 H3         33.2520   -0.0871   34.3567 H           1 XNC       0.0684
     48 H4         33.1040    2.0637   37.4544 H           1 XNC       0.0421
     49 H5         34.2470    1.7747   36.1288 H           1 XNC       0.0421
     50 H6         33.6212    0.4053   37.0850 H           1 XNC       0.0421
     51 H7         27.5899    4.6657   34.0497 H           1 XNC       0.0382
     52 H8         25.4864    5.7830   33.7472 H           1 XNC       0.0451
     53 H9         30.4825    3.7675   37.0808 H           1 XNC       0.0812
     54 H10        30.0468    2.4950   41.5999 H           1 XNC       0.0503
     55 H11        30.1091    0.7940   41.1262 H           1 XNC       0.0503
     56 H12        26.4334    0.4745   40.2276 H           1 XNC       0.0237
     57 H13        27.9435   -0.4270   40.4314 H           1 XNC       0.0237
     58 H14        27.7332    0.6566   39.0539 H           1 XNC       0.0237
     59 H15        28.0703    2.2767   43.1001 H           1 XNC       0.0237
     60 H16        28.1298    0.5305   42.8370 H           1 XNC       0.0237
     61 H17        26.6203    1.4154   42.5762 H           1 XNC       0.0237
     62 H18        27.9657    3.8728   41.1245 H           1 XNC       0.0444
     63 H19        26.4676    3.0846   40.6770 H           1 XNC       0.0444
     64 H20        26.0602    4.3080   39.1367 H           1 XNC       0.2009
     65 H21        23.5579    5.0614   37.7863 H           1 XNC       0.2432
     66 H22        24.0042    6.1174   35.6322 H           1 XNC       0.0389
     67 H23        30.7839    7.9357   39.6300 H           1 XNC       0.0510
     68 H24        29.8244    8.3499   35.5657 H           1 XNC       0.0491
     69 H25        29.4623    5.9910   35.4029 H           1 XNC       0.0520
     70 H26        28.5488   10.5174   37.1217 H           1 XNC       0.0776
     71 H27        29.2709   11.3153   38.5066 H           1 XNC       0.0776
     72 H28        26.9040    8.8021   37.5174 H           1 XNC       0.0557
     73 H29        25.8359    7.1853   38.9345 H           1 XNC       0.0599
     74 H30        26.4904    6.9543   41.2610 H           1 XNC       0.0559
     75 H31        28.2536    8.3629   42.1680 H           1 XNC       0.0599
     76 H32        29.3677    9.9729   40.7482 H           1 XNC       0.0557
@<TRIPOS>BOND
     1     1     2   2
     2     2     3   1
     3     2    10  am
     4     3     4  ar
     5     3     9  ar
     6     4     5  ar
     7     5     6  ar
     8     6     7  ar
     9     7     8   1
    10     7     9  ar
    11    10    11   1
    12    10    14   1
    13    11    12  ar
    14    11    26  ar
    15    12    13  ar
    16    13    29  ar
    17    14    15   1
    18    14    30   1
    19    15    16   1
    20    15    24   2
    21    16    17   2
    22    16    18   2
    23    16    19   1
    24    19    20   1
    25    20    21   1
    26    20    22   1
    27    20    23   1
    28    23    24   1
    29    24    25   1
    30    25    26   1
    31    26    27  ar
    32    27    28   1
    33    27    29  ar
    34    30    31  ar
    35    30    36  ar
    36    31    32   1
    37    31    33  ar
    38    33    34  ar
    39    34    35  ar
    40    34    37   1
    41    35    36  ar
    42    37    38   1
    43    38    39   1
    44    39    40  ar
    45    39    44  ar
    46    40    41  ar
    47    41    42  ar
    48    42    43  ar
    49    43    44  ar
    50     4    45   1
    51     5    46   1
    52     6    47   1
    53     8    48   1
    54     8    49   1
    55     8    50   1
    56    12    51   1
    57    13    52   1
    58    14    53   1
    59    19    54   1
    60    19    55   1
    61    21    56   1
    62    21    57   1
    63    21    58   1
    64    22    59   1
    65    22    60   1
    66    22    61   1
    67    23    62   1
    68    23    63   1
    69    25    64   1
    70    28    65   1
    71    29    66   1
    72    33    67   1
    73    35    68   1
    74    36    69   1
    75    38    70   1
    76    38    71   1
    77    40    72   1
    78    41    73   1
    79    42    74   1
    80    43    75   1
    81    44    76   1
@<TRIPOS>SUBSTRUCTURE
     1  XNC      2

