@<TRIPOS>MOLECULE
3gnw_ligand_009
    76    81
SMALL
GAST_HUCK
****
This file was generated by PARSER (from files_GN.cpp)

@<TRIPOS>ATOM
      1 O35        37.0206    6.1802   47.1700 O.2         1 XNC      -0.3687
      2 C16        36.5811    5.0815   47.4968 C.2         1 XNC       0.2510
      3 C17        36.9834    4.6515   48.7692 C.ar        1 XNC       0.1194
      4 C43        38.2858    4.8848   49.2726 C.ar        1 XNC      -0.0209
      5 C42        38.6077    4.4726   50.5764 C.ar        1 XNC      -0.0435
      6 C41        37.6438    3.8449   51.3819 C.ar        1 XNC      -0.0287
      7 C40        36.3519    3.6298   50.8620 C.ar        1 XNC       0.0301
      8 C44        35.3024    2.9832   51.6716 C.3         1 XNC      -0.0144
      9 N39        36.0875    4.0277   49.5891 N.ar        1 XNC      -0.2781
     10 N7         35.7064    4.4391   46.6837 N.am        1 XNC      -0.2078
     11 C4         35.3161    3.1364   46.9392 C.ar        1 XNC       0.0880
     12 C3         36.2945    2.1186   47.0718 C.ar        1 XNC      -0.0607
     13 C2         35.9231    0.7881   47.3069 C.ar        1 XNC      -0.0955
     14 C8         35.0940    5.0939   45.5181 C.3         1 XNC       0.1162
     15 C9         33.8254    5.6858   46.0028 C.2         1 XNC       0.0894
     16 S12        33.5679    7.3584   45.6750 S.o2        1 XNC      -0.0239
     17 O32        33.5750    7.5672   44.0984 O.2         1 XNC      -0.1768
     18 O33        34.7436    8.2489   46.2701 O.2         1 XNC      -0.1768
     19 C13        31.9723    7.9016   46.3239 C.3         1 XNC       0.0705
     20 C14        30.9440    6.7322   46.3799 C.3         1 XNC      -0.0050
     21 C37        29.6747    7.2010   47.1627 C.3         1 XNC      -0.0565
     22 C38        30.4662    6.2927   44.9596 C.3         1 XNC      -0.0565
     23 C15        31.6059    5.5437   47.1524 C.3         1 XNC       0.0036
     24 C10        32.8460    4.9647   46.6093 C.2         1 XNC       0.0422
     25 N11        32.9181    3.6541   46.8715 N.pl3       1 XNC      -0.2908
     26 C5         33.9447    2.7845   47.0093 C.ar        1 XNC       0.1100
     27 C6         33.5808    1.4452   47.2714 C.ar        1 XNC       0.0976
     28 O36        32.2790    1.0768   47.3768 O.3         1 XNC      -0.3423
     29 C1         34.5648    0.4581   47.4231 C.ar        1 XNC      -0.0580
     30 C18        35.0284    4.2599   44.2565 C.ar        1 XNC       0.0130
     31 C23        36.1036    3.4047   43.8892 C.ar        1 XNC       0.1283
     32 F34        37.2230    3.3939   44.5589 F           1 XNC      -0.1917
     33 C22        36.0132    2.5486   42.7724 C.ar        1 XNC      -0.0061
     34 C21        34.8743    2.5667   41.9458 C.ar        1 XNC       0.0849
     35 C20        33.8610    3.5055   42.2189 C.ar        1 XNC      -0.0435
     36 C19        33.9414    4.3371   43.3484 C.ar        1 XNC      -0.0671
     37 O24        34.8440    1.7956   40.8148 O.3         1 XNC      -0.3110
     38 C25        33.8257    0.7750   40.7097 C.3         1 XNC       0.1027
     39 C26        33.5342    0.6441   39.2624 C.ar        1 XNC      -0.0131
     40 C31        34.4553    0.0030   38.4009 C.ar        1 XNC      -0.0578
     41 C30        34.2419   -0.0130   37.0095 C.ar        1 XNC      -0.0685
     42 C29        33.1135    0.6246   36.4622 C.ar        1 XNC      -0.0687
     43 C28        32.1919    1.2674   37.3088 C.ar        1 XNC      -0.0685
     44 C27        32.3983    1.2742   38.7006 C.ar        1 XNC      -0.0578
     45 H1         39.0002    5.3495   48.7033 H           1 XNC       0.0705
     46 H2         39.5457    4.6349   50.9412 H           1 XNC       0.0729
     47 H3         37.8866    3.5509   52.3322 H           1 XNC       0.0684
     48 H4         34.3651    2.9062   51.1135 H           1 XNC       0.0421
     49 H5         35.1214    3.5653   52.5798 H           1 XNC       0.0421
     50 H6         35.6227    1.9775   51.9544 H           1 XNC       0.0421
     51 H7         37.2889    2.3387   46.9886 H           1 XNC       0.0382
     52 H8         36.6416    0.0661   47.3891 H           1 XNC       0.0451
     53 H9         35.7494    5.9040   45.1854 H           1 XNC       0.0812
     54 H10        31.5993    8.7318   45.7198 H           1 XNC       0.0503
     55 H11        32.1525    8.2698   47.3360 H           1 XNC       0.0503
     56 H12        28.9317    6.4014   47.2060 H           1 XNC       0.0237
     57 H13        29.2200    8.0700   46.6809 H           1 XNC       0.0237
     58 H14        29.9257    7.4720   48.1873 H           1 XNC       0.0237
     59 H15        31.2964    5.9785   44.3373 H           1 XNC       0.0237
     60 H16        29.9595    7.1141   44.4482 H           1 XNC       0.0237
     61 H17        29.7750    5.4512   45.0362 H           1 XNC       0.0237
     62 H18        30.8336    4.7711   47.2595 H           1 XNC       0.0444
     63 H19        31.8463    5.8709   48.1699 H           1 XNC       0.0444
     64 H20        32.0565    3.2469   47.0485 H           1 XNC       0.2009
     65 H21        32.1662    0.8348   48.3209 H           1 XNC       0.2432
     66 H22        34.2841   -0.5015   47.6087 H           1 XNC       0.0389
     67 H23        36.7919    1.9229   42.5457 H           1 XNC       0.0510
     68 H24        33.0610    3.5970   41.5933 H           1 XNC       0.0491
     69 H25        33.1900    5.0091   43.4853 H           1 XNC       0.0520
     70 H26        32.9013    0.9810   41.2617 H           1 XNC       0.0776
     71 H27        34.2137   -0.1590   41.1167 H           1 XNC       0.0776
     72 H28        35.2995   -0.4335   38.7800 H           1 XNC       0.0557
     73 H29        34.9150   -0.4750   36.3932 H           1 XNC       0.0599
     74 H30        32.9603    0.6175   35.4495 H           1 XNC       0.0559
     75 H31        31.3767    1.7396   36.9102 H           1 XNC       0.0599
     76 H32        31.7286    1.7673   39.2961 H           1 XNC       0.0557
@<TRIPOS>BOND
     1     1     2   2
     2     2     3   1
     3     2    10  am
     4     3     4  ar
     5     3     9  ar
     6     4     5  ar
     7     5     6  ar
     8     6     7  ar
     9     7     8   1
    10     7     9  ar
    11    10    11   1
    12    10    14   1
    13    11    12  ar
    14    11    26  ar
    15    12    13  ar
    16    13    29  ar
    17    14    15   1
    18    14    30   1
    19    15    16   1
    20    15    24   2
    21    16    17   2
    22    16    18   2
    23    16    19   1
    24    19    20   1
    25    20    21   1
    26    20    22   1
    27    20    23   1
    28    23    24   1
    29    24    25   1
    30    25    26   1
    31    26    27  ar
    32    27    28   1
    33    27    29  ar
    34    30    31  ar
    35    30    36  ar
    36    31    32   1
    37    31    33  ar
    38    33    34  ar
    39    34    35  ar
    40    34    37   1
    41    35    36  ar
    42    37    38   1
    43    38    39   1
    44    39    40  ar
    45    39    44  ar
    46    40    41  ar
    47    41    42  ar
    48    42    43  ar
    49    43    44  ar
    50     4    45   1
    51     5    46   1
    52     6    47   1
    53     8    48   1
    54     8    49   1
    55     8    50   1
    56    12    51   1
    57    13    52   1
    58    14    53   1
    59    19    54   1
    60    19    55   1
    61    21    56   1
    62    21    57   1
    63    21    58   1
    64    22    59   1
    65    22    60   1
    66    22    61   1
    67    23    62   1
    68    23    63   1
    69    25    64   1
    70    28    65   1
    71    29    66   1
    72    33    67   1
    73    35    68   1
    74    36    69   1
    75    38    70   1
    76    38    71   1
    77    40    72   1
    78    41    73   1
    79    42    74   1
    80    43    75   1
    81    44    76   1
@<TRIPOS>SUBSTRUCTURE
     1  XNC      2

