@<TRIPOS>MOLECULE
3gnw_ligand_035
    76    81
SMALL
GAST_HUCK
****
This file was generated by PARSER (from files_GN.cpp)

@<TRIPOS>ATOM
      1 O35        29.8893    0.6137   38.4948 O.2         1 XNC      -0.3687
      2 C16        28.8241    1.0673   38.0961 C.2         1 XNC       0.2510
      3 C17        28.9443    1.6087   36.8228 C.ar        1 XNC       0.1194
      4 C43        28.8842    3.0038   36.5837 C.ar        1 XNC      -0.0209
      5 C42        29.0857    3.4924   35.2784 C.ar        1 XNC      -0.0435
      6 C41        29.4065    2.6048   34.2375 C.ar        1 XNC      -0.0287
      7 C40        29.5564    1.2326   34.5206 C.ar        1 XNC       0.0301
      8 C44        30.0194    0.2909   33.4862 C.3         1 XNC      -0.0144
      9 N39        29.3114    0.7993   35.7923 N.ar        1 XNC      -0.2781
     10 N7         27.6942    0.9202   38.8356 N.am        1 XNC      -0.2078
     11 C4         26.4665    1.3321   38.3602 C.ar        1 XNC       0.0880
     12 C3         26.2219    2.7124   38.1446 C.ar        1 XNC      -0.0607
     13 C2         24.9968    3.1610   37.6255 C.ar        1 XNC      -0.0955
     14 C8         27.6876    0.1321   40.0757 C.3         1 XNC       0.1162
     15 C9         27.4655   -1.2842   39.7039 C.2         1 XNC       0.0894
     16 S12        28.6983   -2.4086   40.1453 S.o2        1 XNC      -0.0239
     17 O32        29.1336   -2.2111   41.6629 O.2         1 XNC      -0.1768
     18 O33        29.9864   -2.1673   39.2440 O.2         1 XNC      -0.1768
     19 C13        28.1442   -4.1023   39.8800 C.3         1 XNC       0.0705
     20 C14        27.1595   -4.1825   38.6707 C.3         1 XNC      -0.0050
     21 C37        27.8847   -3.9272   37.3081 C.3         1 XNC      -0.0565
     22 C38        26.5458   -5.6227   38.6209 C.3         1 XNC      -0.0565
     23 C15        26.0151   -3.1373   38.9051 C.3         1 XNC       0.0036
     24 C10        26.3850   -1.7094   39.0064 C.2         1 XNC       0.0422
     25 N11        25.4485   -0.9074   38.4654 N.pl3       1 XNC      -0.2908
     26 C5         25.3958    0.4147   38.1617 C.ar        1 XNC       0.1100
     27 C6         24.1666    0.8785   37.6265 C.ar        1 XNC       0.0976
     28 O36        23.1166    0.0470   37.3939 O.3         1 XNC      -0.3423
     29 C1         23.9767    2.2396   37.3436 C.ar        1 XNC      -0.0580
     30 C18        26.8919    0.6822   41.2503 C.ar        1 XNC       0.0130
     31 C23        26.3690   -0.0912   42.3282 C.ar        1 XNC       0.1283
     32 F34        26.3776   -1.3959   42.3200 F           1 XNC      -0.1917
     33 C22        25.8622    0.5236   43.5012 C.ar        1 XNC      -0.0061
     34 C21        25.8352    1.9306   43.6369 C.ar        1 XNC       0.0849
     35 C20        26.3148    2.7004   42.5649 C.ar        1 XNC      -0.0435
     36 C19        26.8454    2.0927   41.4098 C.ar        1 XNC      -0.0671
     37 O24        25.4568    2.6457   44.7637 O.3         1 XNC      -0.3110
     38 C25        24.5742    2.1356   45.7800 C.3         1 XNC       0.1027
     39 C26        23.1377    2.3105   45.4387 C.ar        1 XNC      -0.0131
     40 C31        22.3039    1.1904   45.2067 C.ar        1 XNC      -0.0578
     41 C30        20.9296    1.3599   44.9569 C.ar        1 XNC      -0.0685
     42 C29        20.3694    2.6478   44.9338 C.ar        1 XNC      -0.0687
     43 C28        21.1868    3.7728   45.1499 C.ar        1 XNC      -0.0685
     44 C27        22.5631    3.6039   45.3996 C.ar        1 XNC      -0.0578
     45 H1         28.7018    3.6602   37.3524 H           1 XNC       0.0705
     46 H2         29.0277    4.4972   35.0863 H           1 XNC       0.0729
     47 H3         29.5548    2.9613   33.2935 H           1 XNC       0.0684
     48 H4         30.1046   -0.7221   33.8864 H           1 XNC       0.0421
     49 H5         30.9990    0.6033   33.1227 H           1 XNC       0.0421
     50 H6         29.3210    0.2794   32.6489 H           1 XNC       0.0421
     51 H7         26.9478    3.4018   38.3680 H           1 XNC       0.0382
     52 H8         24.8381    4.1610   37.4624 H           1 XNC       0.0451
     53 H9         28.6899    0.2089   40.5114 H           1 XNC       0.0812
     54 H10        27.6385   -4.4219   40.7955 H           1 XNC       0.0503
     55 H11        29.0129   -4.7486   39.7304 H           1 XNC       0.0503
     56 H12        27.1861   -4.0327   36.4730 H           1 XNC       0.0237
     57 H13        28.6961   -4.6457   37.1690 H           1 XNC       0.0237
     58 H14        28.3077   -2.9224   37.2589 H           1 XNC       0.0237
     59 H15        26.0033   -5.8501   39.5412 H           1 XNC       0.0237
     60 H16        27.3319   -6.3733   38.4934 H           1 XNC       0.0237
     61 H17        25.8470   -5.7173   37.7845 H           1 XNC       0.0237
     62 H18        25.5005   -3.3830   39.8392 H           1 XNC       0.0444
     63 H19        25.2843   -3.2859   38.1017 H           1 XNC       0.0444
     64 H20        24.6395   -1.3808   38.2167 H           1 XNC       0.2009
     65 H21        23.3264   -0.4050   36.5529 H           1 XNC       0.2432
     66 H22        23.0879    2.5643   36.9692 H           1 XNC       0.0389
     67 H23        25.5437   -0.0688   44.2702 H           1 XNC       0.0510
     68 H24        26.3191    3.7202   42.6366 H           1 XNC       0.0491
     69 H25        27.2418    2.7005   40.6923 H           1 XNC       0.0520
     70 H26        24.7657    2.7183   46.6834 H           1 XNC       0.0776
     71 H27        24.8193    1.1018   46.0354 H           1 XNC       0.0776
     72 H28        22.6915    0.2449   45.2300 H           1 XNC       0.0557
     73 H29        20.3380    0.5418   44.7967 H           1 XNC       0.0599
     74 H30        19.3691    2.7687   44.7630 H           1 XNC       0.0559
     75 H31        20.7801    4.7103   45.1248 H           1 XNC       0.0599
     76 H32        23.1420    4.4336   45.5663 H           1 XNC       0.0557
@<TRIPOS>BOND
     1     1     2   2
     2     2     3   1
     3     2    10  am
     4     3     4  ar
     5     3     9  ar
     6     4     5  ar
     7     5     6  ar
     8     6     7  ar
     9     7     8   1
    10     7     9  ar
    11    10    11   1
    12    10    14   1
    13    11    12  ar
    14    11    26  ar
    15    12    13  ar
    16    13    29  ar
    17    14    15   1
    18    14    30   1
    19    15    16   1
    20    15    24   2
    21    16    17   2
    22    16    18   2
    23    16    19   1
    24    19    20   1
    25    20    21   1
    26    20    22   1
    27    20    23   1
    28    23    24   1
    29    24    25   1
    30    25    26   1
    31    26    27  ar
    32    27    28   1
    33    27    29  ar
    34    30    31  ar
    35    30    36  ar
    36    31    32   1
    37    31    33  ar
    38    33    34  ar
    39    34    35  ar
    40    34    37   1
    41    35    36  ar
    42    37    38   1
    43    38    39   1
    44    39    40  ar
    45    39    44  ar
    46    40    41  ar
    47    41    42  ar
    48    42    43  ar
    49    43    44  ar
    50     4    45   1
    51     5    46   1
    52     6    47   1
    53     8    48   1
    54     8    49   1
    55     8    50   1
    56    12    51   1
    57    13    52   1
    58    14    53   1
    59    19    54   1
    60    19    55   1
    61    21    56   1
    62    21    57   1
    63    21    58   1
    64    22    59   1
    65    22    60   1
    66    22    61   1
    67    23    62   1
    68    23    63   1
    69    25    64   1
    70    28    65   1
    71    29    66   1
    72    33    67   1
    73    35    68   1
    74    36    69   1
    75    38    70   1
    76    38    71   1
    77    40    72   1
    78    41    73   1
    79    42    74   1
    80    43    75   1
    81    44    76   1
@<TRIPOS>SUBSTRUCTURE
     1  XNC      2

