@<TRIPOS>MOLECULE
3gnw_ligand_080
    76    81
SMALL
GAST_HUCK
****
This file was generated by PARSER (from files_GN.cpp)

@<TRIPOS>ATOM
      1 O35        29.7633    1.9308   37.7971 O.2         1 XNC      -0.3687
      2 C16        29.5592    3.1102   38.0788 C.2         1 XNC       0.2510
      3 C17        30.3792    3.9800   37.3669 C.ar        1 XNC       0.1194
      4 C43        30.4174    3.9703   35.9525 C.ar        1 XNC      -0.0209
      5 C42        31.2454    4.8796   35.2757 C.ar        1 XNC      -0.0435
      6 C41        32.0554    5.7668   36.0014 C.ar        1 XNC      -0.0287
      7 C40        32.0206    5.7372   37.4095 C.ar        1 XNC       0.0301
      8 C44        32.8395    6.6673   38.2098 C.3         1 XNC      -0.0144
      9 N39        31.1920    4.8535   38.0260 N.ar        1 XNC      -0.2781
     10 N7         28.5427    3.4561   38.9010 N.am        1 XNC      -0.2078
     11 C4         28.2626    4.7779   39.1775 C.ar        1 XNC       0.0880
     12 C3         29.1215    5.5170   40.0244 C.ar        1 XNC      -0.0607
     13 C2         28.8797    6.8798   40.2776 C.ar        1 XNC      -0.0955
     14 C8         27.5126    2.4911   39.2944 C.3         1 XNC       0.1162
     15 C9         26.4969    2.3958   38.2230 C.2         1 XNC       0.0894
     16 S12        26.2391    0.8244   37.5475 S.o2        1 XNC      -0.0239
     17 O32        25.8121   -0.2141   38.6725 O.2         1 XNC      -0.1768
     18 O33        27.5924    0.3007   36.8998 O.2         1 XNC      -0.1768
     19 C13        25.0150    0.8541   36.2217 C.3         1 XNC       0.0705
     20 C14        24.8943    2.2731   35.5865 C.3         1 XNC      -0.0050
     21 C37        26.1355    2.6143   34.6955 C.3         1 XNC      -0.0565
     22 C38        23.6199    2.2936   34.6779 C.3         1 XNC      -0.0565
     23 C15        24.7286    3.3121   36.7475 C.3         1 XNC       0.0036
     24 C10        25.8761    3.4665   37.6655 C.2         1 XNC       0.0422
     25 N11        26.1233    4.7533   37.9677 N.pl3       1 XNC      -0.2908
     26 C5         27.0862    5.3921   38.6749 C.ar        1 XNC       0.1100
     27 C6         26.8650    6.7692   38.9229 C.ar        1 XNC       0.0976
     28 O36        25.7533    7.3914   38.4449 O.3         1 XNC      -0.3423
     29 C1         27.7608    7.5044   39.7128 C.ar        1 XNC      -0.0580
     30 C18        27.0185    2.6747   40.7174 C.ar        1 XNC       0.0130
     31 C23        27.8217    2.2029   41.7887 C.ar        1 XNC       0.1283
     32 F34        28.9655    1.5985   41.5816 F           1 XNC      -0.1917
     33 C22        27.4103    2.3453   43.1248 C.ar        1 XNC      -0.0061
     34 C21        26.1842    2.9734   43.4394 C.ar        1 XNC       0.0849
     35 C20        25.4077    3.5047   42.3916 C.ar        1 XNC      -0.0435
     36 C19        25.8091    3.3399   41.0540 C.ar        1 XNC      -0.0671
     37 O24        25.7566    3.1551   44.7309 O.3         1 XNC      -0.3110
     38 C25        25.6862    1.9894   45.5795 C.3         1 XNC       0.1027
     39 C26        24.6285    1.0249   45.1713 C.ar        1 XNC      -0.0131
     40 C31        24.9506   -0.1429   44.4423 C.ar        1 XNC      -0.0578
     41 C30        23.9417   -1.0509   44.0694 C.ar        1 XNC      -0.0685
     42 C29        22.6018   -0.8105   44.4278 C.ar        1 XNC      -0.0687
     43 C28        22.2676    0.3483   45.1489 C.ar        1 XNC      -0.0685
     44 C27        23.2737    1.2648   45.5084 C.ar        1 XNC      -0.0578
     45 H1         29.8300    3.3233   35.4162 H           1 XNC       0.0705
     46 H2         31.2597    4.8948   34.2532 H           1 XNC       0.0729
     47 H3         32.6605    6.4315   35.5088 H           1 XNC       0.0684
     48 H4         32.6800    6.5168   39.2772 H           1 XNC       0.0421
     49 H5         32.5659    7.6927   37.9575 H           1 XNC       0.0421
     50 H6         33.8985    6.5187   37.9930 H           1 XNC       0.0421
     51 H7         29.9336    5.0699   40.4560 H           1 XNC       0.0382
     52 H8         29.5130    7.4087   40.8800 H           1 XNC       0.0451
     53 H9         27.9876    1.5071   39.3487 H           1 XNC       0.0812
     54 H10        24.0595    0.5480   36.6556 H           1 XNC       0.0503
     55 H11        25.2878    0.1138   35.4684 H           1 XNC       0.0503
     56 H12        26.0344    3.6115   34.2639 H           1 XNC       0.0237
     57 H13        26.2361    1.8965   33.8786 H           1 XNC       0.0237
     58 H14        27.0587    2.5937   35.2756 H           1 XNC       0.0237
     59 H15        22.7203    2.0800   35.2596 H           1 XNC       0.0237
     60 H16        23.6954    1.5440   33.8874 H           1 XNC       0.0237
     61 H17        23.4902    3.2699   34.2079 H           1 XNC       0.0237
     62 H18        23.8687    3.0262   37.3609 H           1 XNC       0.0444
     63 H19        24.4641    4.2732   36.2924 H           1 XNC       0.0444
     64 H20        25.4488    5.3599   37.6242 H           1 XNC       0.2009
     65 H21        26.0932    8.0655   37.8094 H           1 XNC       0.2432
     66 H22        27.5804    8.4947   39.9027 H           1 XNC       0.0389
     67 H23        28.0075    1.9957   43.8703 H           1 XNC       0.0510
     68 H24        24.5443    4.0138   42.6093 H           1 XNC       0.0491
     69 H25        25.1998    3.7322   40.3321 H           1 XNC       0.0520
     70 H26        25.4656    2.3556   46.5846 H           1 XNC       0.0776
     71 H27        26.6587    1.4952   45.6568 H           1 XNC       0.0776
     72 H28        25.9154   -0.3405   44.1775 H           1 XNC       0.0557
     73 H29        24.1816   -1.8933   43.5335 H           1 XNC       0.0599
     74 H30        21.8728   -1.4753   44.1606 H           1 XNC       0.0559
     75 H31        21.3000    0.5230   45.4122 H           1 XNC       0.0599
     76 H32        23.0136    2.1070   46.0361 H           1 XNC       0.0557
@<TRIPOS>BOND
     1     1     2   2
     2     2     3   1
     3     2    10  am
     4     3     4  ar
     5     3     9  ar
     6     4     5  ar
     7     5     6  ar
     8     6     7  ar
     9     7     8   1
    10     7     9  ar
    11    10    11   1
    12    10    14   1
    13    11    12  ar
    14    11    26  ar
    15    12    13  ar
    16    13    29  ar
    17    14    15   1
    18    14    30   1
    19    15    16   1
    20    15    24   2
    21    16    17   2
    22    16    18   2
    23    16    19   1
    24    19    20   1
    25    20    21   1
    26    20    22   1
    27    20    23   1
    28    23    24   1
    29    24    25   1
    30    25    26   1
    31    26    27  ar
    32    27    28   1
    33    27    29  ar
    34    30    31  ar
    35    30    36  ar
    36    31    32   1
    37    31    33  ar
    38    33    34  ar
    39    34    35  ar
    40    34    37   1
    41    35    36  ar
    42    37    38   1
    43    38    39   1
    44    39    40  ar
    45    39    44  ar
    46    40    41  ar
    47    41    42  ar
    48    42    43  ar
    49    43    44  ar
    50     4    45   1
    51     5    46   1
    52     6    47   1
    53     8    48   1
    54     8    49   1
    55     8    50   1
    56    12    51   1
    57    13    52   1
    58    14    53   1
    59    19    54   1
    60    19    55   1
    61    21    56   1
    62    21    57   1
    63    21    58   1
    64    22    59   1
    65    22    60   1
    66    22    61   1
    67    23    62   1
    68    23    63   1
    69    25    64   1
    70    28    65   1
    71    29    66   1
    72    33    67   1
    73    35    68   1
    74    36    69   1
    75    38    70   1
    76    38    71   1
    77    40    72   1
    78    41    73   1
    79    42    74   1
    80    43    75   1
    81    44    76   1
@<TRIPOS>SUBSTRUCTURE
     1  XNC      2

