@<TRIPOS>MOLECULE
3gnw_ligand_029
    76    81
SMALL
GAST_HUCK
****
This file was generated by PARSER (from files_GN.cpp)

@<TRIPOS>ATOM
      1 O35        30.1940    3.8656   43.0192 O.2         1 XNC      -0.3687
      2 C16        29.3366    3.3052   42.3466 C.2         1 XNC       0.2510
      3 C17        28.2008    2.9695   43.0725 C.ar        1 XNC       0.1194
      4 C43        26.9330    3.5242   42.7815 C.ar        1 XNC      -0.0209
      5 C42        25.8325    3.1833   43.5889 C.ar        1 XNC      -0.0435
      6 C41        25.9898    2.2686   44.6465 C.ar        1 XNC      -0.0287
      7 C40        27.2648    1.7206   44.8990 C.ar        1 XNC       0.0301
      8 C44        27.4845    0.7444   45.9823 C.3         1 XNC      -0.0144
      9 N39        28.3083    2.1019   44.1145 N.ar        1 XNC      -0.2781
     10 N7         29.4894    3.1288   41.0123 N.am        1 XNC      -0.2078
     11 C4         28.6985    2.2204   40.3148 C.ar        1 XNC       0.0880
     12 C3         28.5855    0.8921   40.8058 C.ar        1 XNC      -0.0607
     13 C2         27.8473   -0.0824   40.1205 C.ar        1 XNC      -0.0955
     14 C8         30.4783    3.9037   40.2555 C.3         1 XNC       0.1162
     15 C9         29.7377    5.0480   39.6827 C.2         1 XNC       0.0894
     16 S12        30.1084    6.6095   40.3128 S.o2        1 XNC      -0.0239
     17 O32        31.6719    6.8982   40.2786 O.2         1 XNC      -0.1768
     18 O33        29.6387    6.6158   41.8321 O.2         1 XNC      -0.1768
     19 C13        29.2161    7.9137   39.4398 C.3         1 XNC       0.0705
     20 C14        27.9067    7.3823   38.7734 C.3         1 XNC      -0.0050
     21 C37        26.7822    7.1353   39.8325 C.3         1 XNC      -0.0565
     22 C38        27.3857    8.4613   37.7646 C.3         1 XNC      -0.0565
     23 C15        28.2452    6.0644   37.9912 C.3         1 XNC       0.0036
     24 C10        28.7192    4.9209   38.7950 C.2         1 XNC       0.0422
     25 N11        28.1154    3.7623   38.4824 N.pl3       1 XNC      -0.2908
     26 C5         28.0522    2.5485   39.0912 C.ar        1 XNC       0.1100
     27 C6         27.2514    1.5740   38.4417 C.ar        1 XNC       0.0976
     28 O36        26.5412    1.8806   37.3211 O.3         1 XNC      -0.3423
     29 C1         27.1725    0.2610   38.9433 C.ar        1 XNC      -0.0580
     30 C18        31.3778    3.1488   39.3006 C.ar        1 XNC       0.0130
     31 C23        31.8110    1.8200   39.5677 C.ar        1 XNC       0.1283
     32 F34        31.5270    1.2115   40.6875 F           1 XNC      -0.1917
     33 C22        32.5615    1.0971   38.6201 C.ar        1 XNC      -0.0061
     34 C21        32.9967    1.7108   37.4339 C.ar        1 XNC       0.0849
     35 C20        32.7840    3.0977   37.2693 C.ar        1 XNC      -0.0435
     36 C19        31.9421    3.7862   38.1612 C.ar        1 XNC      -0.0671
     37 O24        33.5533    0.8969   36.4812 O.3         1 XNC      -0.3110
     38 C25        33.0974    0.9770   35.1107 C.3         1 XNC       0.1027
     39 C26        31.6395    0.8405   34.7813 C.ar        1 XNC      -0.0131
     40 C31        31.2634    0.2844   33.5311 C.ar        1 XNC      -0.0578
     41 C30        29.9159    0.2138   33.1266 C.ar        1 XNC      -0.0685
     42 C29        28.9062    0.7191   33.9604 C.ar        1 XNC      -0.0687
     43 C28        29.2480    1.3067   35.1858 C.ar        1 XNC      -0.0685
     44 C27        30.5948    1.3719   35.5810 C.ar        1 XNC      -0.0578
     45 H1         26.8120    4.1952   42.0205 H           1 XNC       0.0705
     46 H2         24.9189    3.6042   43.4070 H           1 XNC       0.0729
     47 H3         25.1836    2.0137   45.2227 H           1 XNC       0.0684
     48 H4         28.5284    0.4254   46.0189 H           1 XNC       0.0421
     49 H5         26.8614   -0.1355   45.8166 H           1 XNC       0.0421
     50 H6         27.2244    1.1907   46.9432 H           1 XNC       0.0421
     51 H7         29.0682    0.6145   41.6642 H           1 XNC       0.0382
     52 H8         27.7988   -1.0395   40.4797 H           1 XNC       0.0451
     53 H9         31.2272    4.2991   40.9471 H           1 XNC       0.0812
     54 H10        29.8929    8.2984   38.6739 H           1 XNC       0.0503
     55 H11        29.0012    8.7286   40.1342 H           1 XNC       0.0503
     56 H12        25.8887    6.7431   39.3457 H           1 XNC       0.0237
     57 H13        26.5148    8.0652   40.3388 H           1 XNC       0.0237
     58 H14        27.0955    6.4174   40.5905 H           1 XNC       0.0237
     59 H15        28.1236    8.6545   36.9827 H           1 XNC       0.0237
     60 H16        27.1801    9.4043   38.2762 H           1 XNC       0.0237
     61 H17        26.4633    8.1301   37.2819 H           1 XNC       0.0237
     62 H18        29.0281    6.2821   37.2587 H           1 XNC       0.0444
     63 H19        27.3578    5.7916   37.4093 H           1 XNC       0.0444
     64 H20        27.5705    3.8157   37.6815 H           1 XNC       0.2009
     65 H21        25.6020    1.9463   37.5971 H           1 XNC       0.2432
     66 H22        26.6299   -0.4513   38.4486 H           1 XNC       0.0389
     67 H23        32.7634    0.1056   38.7722 H           1 XNC       0.0510
     68 H24        33.1569    3.5899   36.4541 H           1 XNC       0.0491
     69 H25        31.7403    4.7688   37.9610 H           1 XNC       0.0520
     70 H26        33.6346    0.1651   34.6172 H           1 XNC       0.0776
     71 H27        33.4648    1.8991   34.6606 H           1 XNC       0.0776
     72 H28        31.9770   -0.0507   32.8785 H           1 XNC       0.0557
     73 H29        29.6739   -0.1910   32.2186 H           1 XNC       0.0599
     74 H30        27.9285    0.6730   33.6703 H           1 XNC       0.0559
     75 H31        28.5181    1.6960   35.7822 H           1 XNC       0.0599
     76 H32        30.7821    1.8241   36.4651 H           1 XNC       0.0557
@<TRIPOS>BOND
     1     1     2   2
     2     2     3   1
     3     2    10  am
     4     3     4  ar
     5     3     9  ar
     6     4     5  ar
     7     5     6  ar
     8     6     7  ar
     9     7     8   1
    10     7     9  ar
    11    10    11   1
    12    10    14   1
    13    11    12  ar
    14    11    26  ar
    15    12    13  ar
    16    13    29  ar
    17    14    15   1
    18    14    30   1
    19    15    16   1
    20    15    24   2
    21    16    17   2
    22    16    18   2
    23    16    19   1
    24    19    20   1
    25    20    21   1
    26    20    22   1
    27    20    23   1
    28    23    24   1
    29    24    25   1
    30    25    26   1
    31    26    27  ar
    32    27    28   1
    33    27    29  ar
    34    30    31  ar
    35    30    36  ar
    36    31    32   1
    37    31    33  ar
    38    33    34  ar
    39    34    35  ar
    40    34    37   1
    41    35    36  ar
    42    37    38   1
    43    38    39   1
    44    39    40  ar
    45    39    44  ar
    46    40    41  ar
    47    41    42  ar
    48    42    43  ar
    49    43    44  ar
    50     4    45   1
    51     5    46   1
    52     6    47   1
    53     8    48   1
    54     8    49   1
    55     8    50   1
    56    12    51   1
    57    13    52   1
    58    14    53   1
    59    19    54   1
    60    19    55   1
    61    21    56   1
    62    21    57   1
    63    21    58   1
    64    22    59   1
    65    22    60   1
    66    22    61   1
    67    23    62   1
    68    23    63   1
    69    25    64   1
    70    28    65   1
    71    29    66   1
    72    33    67   1
    73    35    68   1
    74    36    69   1
    75    38    70   1
    76    38    71   1
    77    40    72   1
    78    41    73   1
    79    42    74   1
    80    43    75   1
    81    44    76   1
@<TRIPOS>SUBSTRUCTURE
     1  XNC      2

