@<TRIPOS>MOLECULE
3gnw_ligand_050
    76    81
SMALL
GAST_HUCK
****
This file was generated by PARSER (from files_GN.cpp)

@<TRIPOS>ATOM
      1 O35        31.1764    1.1637   38.7073 O.2         1 XNC      -0.3687
      2 C16        30.1709    1.7736   38.3695 C.2         1 XNC       0.2510
      3 C17        30.3446    2.5239   37.2104 C.ar        1 XNC       0.1194
      4 C43        31.3398    3.5249   37.1050 C.ar        1 XNC      -0.0209
      5 C42        31.4509    4.2595   35.9127 C.ar        1 XNC      -0.0435
      6 C41        30.6016    3.9770   34.8291 C.ar        1 XNC      -0.0287
      7 C40        29.6383    2.9533   34.9558 C.ar        1 XNC       0.0301
      8 C44        28.7546    2.5916   33.8326 C.3         1 XNC      -0.0144
      9 N39        29.5438    2.2831   36.1374 N.ar        1 XNC      -0.2781
     10 N7         29.0008    1.6222   39.0364 N.am        1 XNC      -0.2078
     11 C4         27.9134    2.4481   38.7851 C.ar        1 XNC       0.0880
     12 C3         28.0757    3.8553   38.8337 C.ar        1 XNC      -0.0607
     13 C2         26.9973    4.7220   38.5903 C.ar        1 XNC      -0.0955
     14 C8         28.8159    0.5533   40.0234 C.3         1 XNC       0.1162
     15 C9         28.2409   -0.5958   39.2930 C.2         1 XNC       0.0894
     16 S12        29.0186   -2.1175   39.5170 S.o2        1 XNC      -0.0239
     17 O32        28.9740   -2.5021   41.0587 O.2         1 XNC      -0.1768
     18 O33        30.5551   -2.0438   39.1196 O.2         1 XNC      -0.1768
     19 C13        28.1890   -3.4179   38.5804 C.3         1 XNC       0.0705
     20 C14        26.6733   -3.1013   38.3813 C.3         1 XNC      -0.0050
     21 C37        26.0871   -4.1169   37.3470 C.3         1 XNC      -0.0565
     22 C38        25.8567   -3.2676   39.7043 C.3         1 XNC      -0.0565
     23 C15        26.5412   -1.6486   37.8047 C.3         1 XNC       0.0036
     24 C10        27.0790   -0.5242   38.5938 C.2         1 XNC       0.0422
     25 N11        26.3339    0.5876   38.4710 N.pl3       1 XNC      -0.2908
     26 C5         26.6169    1.9144   38.5425 C.ar        1 XNC       0.1100
     27 C6         25.5364    2.7994   38.2991 C.ar        1 XNC       0.0976
     28 O36        24.2849    2.3504   38.0105 O.3         1 XNC      -0.3423
     29 C1         25.7306    4.1919   38.3187 C.ar        1 XNC      -0.0580
     30 C18        28.1377    0.9524   41.3117 C.ar        1 XNC       0.0130
     31 C23        28.3793    2.2142   41.9165 C.ar        1 XNC       0.1283
     32 F34        29.1655    3.0898   41.3512 F           1 XNC      -0.1917
     33 C22        27.8051    2.5619   43.1598 C.ar        1 XNC      -0.0061
     34 C21        26.9932    1.6483   43.8532 C.ar        1 XNC       0.0849
     35 C20        26.7972    0.3656   43.3022 C.ar        1 XNC      -0.0435
     36 C19        27.3406    0.0370   42.0507 C.ar        1 XNC      -0.0671
     37 O24        26.5632    1.9740   45.1169 O.3         1 XNC      -0.3110
     38 C25        25.1598    1.7556   45.3948 C.3         1 XNC       0.1027
     39 C26        25.0076    1.6455   46.8642 C.ar        1 XNC      -0.0131
     40 C31        24.1921    2.5338   47.5996 C.ar        1 XNC      -0.0578
     41 C30        24.0951    2.4145   48.9985 C.ar        1 XNC      -0.0685
     42 C29        24.8099    1.4079   49.6708 C.ar        1 XNC      -0.0687
     43 C28        25.6062    0.5063   48.9436 C.ar        1 XNC      -0.0685
     44 C27        25.6942    0.6132   47.5448 C.ar        1 XNC      -0.0578
     45 H1         31.9605    3.7359   37.8925 H           1 XNC       0.0705
     46 H2         32.1523    4.9972   35.8328 H           1 XNC       0.0729
     47 H3         30.6918    4.5089   33.9623 H           1 XNC       0.0684
     48 H4         28.0809    1.7737   34.1045 H           1 XNC       0.0421
     49 H5         29.3544    2.2704   32.9760 H           1 XNC       0.0421
     50 H6         28.1509    3.4540   33.5376 H           1 XNC       0.0421
     51 H7         28.9873    4.2654   39.0444 H           1 XNC       0.0382
     52 H8         27.1373    5.7346   38.6112 H           1 XNC       0.0451
     53 H9         29.7980    0.2583   40.4041 H           1 XNC       0.0812
     54 H10        28.3320   -4.3744   39.0897 H           1 XNC       0.0503
     55 H11        28.6879   -3.4748   37.6090 H           1 XNC       0.0503
     56 H12        25.0248   -3.9261   37.1756 H           1 XNC       0.0237
     57 H13        26.1947   -5.1416   37.7103 H           1 XNC       0.0237
     58 H14        26.6011   -4.0407   36.3859 H           1 XNC       0.0237
     59 H15        26.1984   -2.5842   40.4716 H           1 XNC       0.0237
     60 H16        25.9557   -4.2807   40.0975 H           1 XNC       0.0237
     61 H17        24.7968   -3.0696   39.5345 H           1 XNC       0.0237
     62 H18        25.4790   -1.4857   37.5834 H           1 XNC       0.0444
     63 H19        27.0576   -1.6100   36.8398 H           1 XNC       0.0444
     64 H20        25.4211    0.4090   38.2020 H           1 XNC       0.2009
     65 H21        24.0129    1.8141   38.7848 H           1 XNC       0.2432
     66 H22        24.9462    4.8224   38.1371 H           1 XNC       0.0389
     67 H23        28.0114    3.4738   43.5807 H           1 XNC       0.0510
     68 H24        26.2552   -0.3278   43.8356 H           1 XNC       0.0491
     69 H25        27.1770   -0.9093   41.7273 H           1 XNC       0.0520
     70 H26        24.7853    0.8233   44.9442 H           1 XNC       0.0776
     71 H27        24.5863    2.5947   44.9861 H           1 XNC       0.0776
     72 H28        23.6750    3.2727   47.1220 H           1 XNC       0.0557
     73 H29        23.5091    3.0638   49.5248 H           1 XNC       0.0599
     74 H30        24.7506    1.3304   50.6864 H           1 XNC       0.0559
     75 H31        26.1277   -0.2282   49.4283 H           1 XNC       0.0599
     76 H32        26.2798   -0.0552   47.0278 H           1 XNC       0.0557
@<TRIPOS>BOND
     1     1     2   2
     2     2     3   1
     3     2    10  am
     4     3     4  ar
     5     3     9  ar
     6     4     5  ar
     7     5     6  ar
     8     6     7  ar
     9     7     8   1
    10     7     9  ar
    11    10    11   1
    12    10    14   1
    13    11    12  ar
    14    11    26  ar
    15    12    13  ar
    16    13    29  ar
    17    14    15   1
    18    14    30   1
    19    15    16   1
    20    15    24   2
    21    16    17   2
    22    16    18   2
    23    16    19   1
    24    19    20   1
    25    20    21   1
    26    20    22   1
    27    20    23   1
    28    23    24   1
    29    24    25   1
    30    25    26   1
    31    26    27  ar
    32    27    28   1
    33    27    29  ar
    34    30    31  ar
    35    30    36  ar
    36    31    32   1
    37    31    33  ar
    38    33    34  ar
    39    34    35  ar
    40    34    37   1
    41    35    36  ar
    42    37    38   1
    43    38    39   1
    44    39    40  ar
    45    39    44  ar
    46    40    41  ar
    47    41    42  ar
    48    42    43  ar
    49    43    44  ar
    50     4    45   1
    51     5    46   1
    52     6    47   1
    53     8    48   1
    54     8    49   1
    55     8    50   1
    56    12    51   1
    57    13    52   1
    58    14    53   1
    59    19    54   1
    60    19    55   1
    61    21    56   1
    62    21    57   1
    63    21    58   1
    64    22    59   1
    65    22    60   1
    66    22    61   1
    67    23    62   1
    68    23    63   1
    69    25    64   1
    70    28    65   1
    71    29    66   1
    72    33    67   1
    73    35    68   1
    74    36    69   1
    75    38    70   1
    76    38    71   1
    77    40    72   1
    78    41    73   1
    79    42    74   1
    80    43    75   1
    81    44    76   1
@<TRIPOS>SUBSTRUCTURE
     1  XNC      2

