@<TRIPOS>MOLECULE
3gnw_ligand_037
    76    81
SMALL
GAST_HUCK
****
This file was generated by PARSER (from files_GN.cpp)

@<TRIPOS>ATOM
      1 O35        39.3747    4.7031   40.4448 O.2         1 XNC      -0.3687
      2 C16        38.4875    5.1359   41.1729 C.2         1 XNC       0.2510
      3 C17        38.0959    6.4278   40.8416 C.ar        1 XNC       0.1194
      4 C43        36.9201    6.6884   40.1062 C.ar        1 XNC      -0.0209
      5 C42        36.5922    8.0199   39.7952 C.ar        1 XNC      -0.0435
      6 C41        37.4107    9.0729   40.2432 C.ar        1 XNC      -0.0287
      7 C40        38.5619    8.7792   41.0057 C.ar        1 XNC       0.0301
      8 C44        39.4178    9.8475   41.5513 C.3         1 XNC      -0.0144
      9 N39        38.8542    7.4748   41.2615 N.ar        1 XNC      -0.2781
     10 N7         37.9569    4.3807   42.1629 N.am        1 XNC      -0.2078
     11 C4         37.1084    4.9245   43.1212 C.ar        1 XNC       0.0880
     12 C3         37.5307    6.0672   43.8480 C.ar        1 XNC      -0.0607
     13 C2         36.7242    6.6285   44.8486 C.ar        1 XNC      -0.0955
     14 C8         38.2033    2.9377   42.2348 C.3         1 XNC       0.1162
     15 C9         37.1125    2.3006   41.4782 C.2         1 XNC       0.0894
     16 S12        37.5753    1.3144   40.1438 S.o2        1 XNC      -0.0239
     17 O32        38.6672    0.2424   40.5853 O.2         1 XNC      -0.1768
     18 O33        38.2081    2.2402   39.0126 O.2         1 XNC      -0.1768
     19 C13        36.1417    0.4537   39.4606 C.3         1 XNC       0.0705
     20 C14        34.8272    1.2505   39.7219 C.3         1 XNC      -0.0050
     21 C37        34.7646    2.5581   38.8655 C.3         1 XNC      -0.0565
     22 C38        33.6154    0.3457   39.3209 C.3         1 XNC      -0.0565
     23 C15        34.7449    1.5797   41.2571 C.3         1 XNC       0.0036
     24 C10        35.8067    2.4264   41.8303 C.2         1 XNC       0.0422
     25 N11        35.3613    3.2076   42.8379 N.pl3       1 XNC      -0.2908
     26 C5         35.8718    4.3030   43.4620 C.ar        1 XNC       0.1100
     27 C6         35.0993    4.8441   44.5211 C.ar        1 XNC       0.0976
     28 O36        33.9580    4.2322   44.9366 O.3         1 XNC      -0.3423
     29 C1         35.5144    6.0087   45.1944 C.ar        1 XNC      -0.0580
     30 C18        38.4519    2.3778   43.6239 C.ar        1 XNC       0.0130
     31 C23        39.1796    3.1370   44.5855 C.ar        1 XNC       0.1283
     32 F34        39.7128    4.2880   44.2697 F           1 XNC      -0.1917
     33 C22        39.3231    2.6685   45.9092 C.ar        1 XNC      -0.0061
     34 C21        38.7821    1.4185   46.2882 C.ar        1 XNC       0.0849
     35 C20        38.1881    0.5987   45.3173 C.ar        1 XNC      -0.0435
     36 C19        38.0169    1.0740   44.0062 C.ar        1 XNC      -0.0671
     37 O24        38.8348    0.9589   47.5755 O.3         1 XNC      -0.3110
     38 C25        38.1359    1.7527   48.5678 C.3         1 XNC       0.1027
     39 C26        36.6695    1.9536   48.3681 C.ar        1 XNC      -0.0131
     40 C31        35.9878    3.0235   49.0073 C.ar        1 XNC      -0.0578
     41 C30        34.5984    3.1739   48.8447 C.ar        1 XNC      -0.0685
     42 C29        33.8680    2.2907   48.0203 C.ar        1 XNC      -0.0687
     43 C28        34.5350    1.2198   47.3923 C.ar        1 XNC      -0.0685
     44 C27        35.9208    1.0440   47.5756 C.ar        1 XNC      -0.0578
     45 H1         36.3272    5.9246   39.7768 H           1 XNC       0.0705
     46 H2         35.7526    8.2219   39.2463 H           1 XNC       0.0729
     47 H3         37.1570   10.0406   40.0278 H           1 XNC       0.0684
     48 H4         40.2417    9.4322   42.1386 H           1 XNC       0.0421
     49 H5         38.8238   10.4927   42.2041 H           1 XNC       0.0421
     50 H6         39.8351   10.4443   40.7365 H           1 XNC       0.0421
     51 H7         38.4341    6.5016   43.6491 H           1 XNC       0.0382
     52 H8         37.0358    7.4630   45.3490 H           1 XNC       0.0451
     53 H9         39.1532    2.7173   41.7461 H           1 XNC       0.0812
     54 H10        36.0892   -0.5245   39.9475 H           1 XNC       0.0503
     55 H11        36.2985    0.2921   38.3909 H           1 XNC       0.0503
     56 H12        33.8273    3.0928   39.0462 H           1 XNC       0.0237
     57 H13        34.8222    2.3204   37.7999 H           1 XNC       0.0237
     58 H14        35.5844    3.2378   39.1034 H           1 XNC       0.0237
     59 H15        33.6020   -0.5768   39.9084 H           1 XNC       0.0237
     60 H16        33.6736    0.0746   38.2623 H           1 XNC       0.0237
     61 H17        32.6692    0.8671   39.4881 H           1 XNC       0.0237
     62 H18        34.7676    0.6413   41.8218 H           1 XNC       0.0444
     63 H19        33.7591    2.0305   41.4445 H           1 XNC       0.0444
     64 H20        34.4738    2.9602   43.1538 H           1 XNC       0.2009
     65 H21        33.3318    4.9545   45.1732 H           1 XNC       0.2432
     66 H22        34.9426    6.4026   45.9473 H           1 XNC       0.0389
     67 H23        39.8006    3.2442   46.6100 H           1 XNC       0.0510
     68 H24        37.8542   -0.3297   45.5585 H           1 XNC       0.0491
     69 H25        37.5540    0.4495   43.3322 H           1 XNC       0.0520
     70 H26        38.6533    2.7098   48.6774 H           1 XNC       0.0776
     71 H27        38.2700    1.2230   49.5137 H           1 XNC       0.0776
     72 H28        36.4966    3.6879   49.6007 H           1 XNC       0.0557
     73 H29        34.1036    3.9385   49.3200 H           1 XNC       0.0599
     74 H30        32.8553    2.4211   47.8954 H           1 XNC       0.0559
     75 H31        34.0080    0.5713   46.8047 H           1 XNC       0.0599
     76 H32        36.3970    0.2673   47.0946 H           1 XNC       0.0557
@<TRIPOS>BOND
     1     1     2   2
     2     2     3   1
     3     2    10  am
     4     3     4  ar
     5     3     9  ar
     6     4     5  ar
     7     5     6  ar
     8     6     7  ar
     9     7     8   1
    10     7     9  ar
    11    10    11   1
    12    10    14   1
    13    11    12  ar
    14    11    26  ar
    15    12    13  ar
    16    13    29  ar
    17    14    15   1
    18    14    30   1
    19    15    16   1
    20    15    24   2
    21    16    17   2
    22    16    18   2
    23    16    19   1
    24    19    20   1
    25    20    21   1
    26    20    22   1
    27    20    23   1
    28    23    24   1
    29    24    25   1
    30    25    26   1
    31    26    27  ar
    32    27    28   1
    33    27    29  ar
    34    30    31  ar
    35    30    36  ar
    36    31    32   1
    37    31    33  ar
    38    33    34  ar
    39    34    35  ar
    40    34    37   1
    41    35    36  ar
    42    37    38   1
    43    38    39   1
    44    39    40  ar
    45    39    44  ar
    46    40    41  ar
    47    41    42  ar
    48    42    43  ar
    49    43    44  ar
    50     4    45   1
    51     5    46   1
    52     6    47   1
    53     8    48   1
    54     8    49   1
    55     8    50   1
    56    12    51   1
    57    13    52   1
    58    14    53   1
    59    19    54   1
    60    19    55   1
    61    21    56   1
    62    21    57   1
    63    21    58   1
    64    22    59   1
    65    22    60   1
    66    22    61   1
    67    23    62   1
    68    23    63   1
    69    25    64   1
    70    28    65   1
    71    29    66   1
    72    33    67   1
    73    35    68   1
    74    36    69   1
    75    38    70   1
    76    38    71   1
    77    40    72   1
    78    41    73   1
    79    42    74   1
    80    43    75   1
    81    44    76   1
@<TRIPOS>SUBSTRUCTURE
     1  XNC      2

