@<TRIPOS>MOLECULE
3gnw_ligand_038
    76    81
SMALL
GAST_HUCK
****
This file was generated by PARSER (from files_GN.cpp)

@<TRIPOS>ATOM
      1 O35        29.8866    1.9277   37.8201 O.2         1 XNC      -0.3687
      2 C16        29.6451    3.1025   38.0749 C.2         1 XNC       0.2510
      3 C17        30.4436    3.9836   37.3614 C.ar        1 XNC       0.1194
      4 C43        30.4492    3.9797   35.9497 C.ar        1 XNC      -0.0209
      5 C42        31.2663    4.8847   35.2569 C.ar        1 XNC      -0.0435
      6 C41        32.0854    5.7800   35.9700 C.ar        1 XNC      -0.0287
      7 C40        32.0730    5.7521   37.3819 C.ar        1 XNC       0.0301
      8 C44        32.9153    6.6689   38.1715 C.3         1 XNC      -0.0144
      9 N39        31.2620    4.8623   38.0110 N.ar        1 XNC      -0.2781
     10 N7         28.5908    3.4451   38.8545 N.am        1 XNC      -0.2078
     11 C4         28.3081    4.7636   39.1521 C.ar        1 XNC       0.0880
     12 C3         29.1733    5.4829   40.0136 C.ar        1 XNC      -0.0607
     13 C2         28.9390    6.8393   40.3059 C.ar        1 XNC      -0.0955
     14 C8         27.5647    2.4729   39.2152 C.3         1 XNC       0.1162
     15 C9         26.5397    2.3991   38.1560 C.2         1 XNC       0.0894
     16 S12        26.3163    0.8457   37.4211 S.o2        1 XNC      -0.0239
     17 O32        25.9083   -0.2515   38.4979 O.2         1 XNC      -0.1768
     18 O33        27.6864    0.3775   36.7649 O.2         1 XNC      -0.1768
     19 C13        25.0952    0.8977   36.0960 C.3         1 XNC       0.0705
     20 C14        24.9215    2.3445   35.5406 C.3         1 XNC      -0.0050
     21 C37        26.1375    2.7702   34.6514 C.3         1 XNC      -0.0565
     22 C38        23.6349    2.3714   34.6531 C.3         1 XNC      -0.0565
     23 C15        24.7378    3.3278   36.7477 C.3         1 XNC       0.0036
     24 C10        25.8981    3.4849   37.6442 C.2         1 XNC       0.0422
     25 N11        26.1381    4.7650   37.9816 N.pl3       1 XNC      -0.2908
     26 C5         27.1231    5.3901   38.6843 C.ar        1 XNC       0.1100
     27 C6         26.9089    6.7624   38.9719 C.ar        1 XNC       0.0976
     28 O36        25.8119    7.4218   38.5208 O.3         1 XNC      -0.3423
     29 C1         27.8160    7.4794   39.7712 C.ar        1 XNC      -0.0580
     30 C18        27.0892    2.6058   40.6422 C.ar        1 XNC       0.0130
     31 C23        27.9250    2.1293   41.6853 C.ar        1 XNC       0.1283
     32 F34        29.0842    1.5823   41.4415 F           1 XNC      -0.1917
     33 C22        27.5355    2.2392   43.0375 C.ar        1 XNC      -0.0061
     34 C21        26.3265    2.8568   43.4019 C.ar        1 XNC       0.0849
     35 C20        25.5165    3.3799   42.3793 C.ar        1 XNC      -0.0435
     36 C19        25.8744    3.2319   41.0198 C.ar        1 XNC      -0.0671
     37 O24        25.9331    3.1017   44.7045 O.3         1 XNC      -0.3110
     38 C25        26.0981    2.1002   45.7286 C.3         1 XNC       0.1027
     39 C26        27.5031    1.9378   46.2007 C.ar        1 XNC      -0.0131
     40 C31        28.3591    3.0552   46.3056 C.ar        1 XNC      -0.0578
     41 C30        29.7366    2.8842   46.5608 C.ar        1 XNC      -0.0685
     42 C29        30.2554    1.5958   46.7719 C.ar        1 XNC      -0.0687
     43 C28        29.4054    0.4795   46.7207 C.ar        1 XNC      -0.0685
     44 C27        28.0372    0.6461   46.4384 C.ar        1 XNC      -0.0578
     45 H1         29.8571    3.3294   35.4251 H           1 XNC       0.0705
     46 H2         31.2699    4.8935   34.2345 H           1 XNC       0.0729
     47 H3         32.6812    6.4379   35.4653 H           1 XNC       0.0684
     48 H4         32.7717    6.5039   39.2413 H           1 XNC       0.0421
     49 H5         32.6513    7.7025   37.9398 H           1 XNC       0.0421
     50 H6         33.9673    6.5067   37.9326 H           1 XNC       0.0421
     51 H7         29.9833    5.0211   40.4298 H           1 XNC       0.0382
     52 H8         29.5859    7.3526   40.9082 H           1 XNC       0.0451
     53 H9         28.0304    1.4839   39.2365 H           1 XNC       0.0812
     54 H10        24.1533    0.5324   36.5103 H           1 XNC       0.0503
     55 H11        25.3979    0.2102   35.3052 H           1 XNC       0.0503
     56 H12        26.0033    3.7893   34.2802 H           1 XNC       0.0237
     57 H13        26.2439    2.1044   33.7915 H           1 XNC       0.0237
     58 H14        27.0718    2.7406   35.2133 H           1 XNC       0.0237
     59 H15        22.7501    2.1044   35.2382 H           1 XNC       0.0237
     60 H16        23.7206    1.6619   33.8258 H           1 XNC       0.0237
     61 H17        23.4706    3.3669   34.2326 H           1 XNC       0.0237
     62 H18        23.9038    2.9792   37.3628 H           1 XNC       0.0444
     63 H19        24.4199    4.2947   36.3455 H           1 XNC       0.0444
     64 H20        25.4496    5.3724   37.6764 H           1 XNC       0.2009
     65 H21        25.9850    7.5790   37.5665 H           1 XNC       0.2432
     66 H22        27.6457    8.4660   39.9845 H           1 XNC       0.0389
     67 H23        28.1724    1.8789   43.7421 H           1 XNC       0.0510
     68 H24        24.6576    3.8832   42.6137 H           1 XNC       0.0491
     69 H25        25.2436    3.6149   40.3136 H           1 XNC       0.0520
     70 H26        25.6639    1.1533   45.3927 H           1 XNC       0.0776
     71 H27        25.5065    2.4373   46.5826 H           1 XNC       0.0776
     72 H28        28.0117    3.9995   46.1144 H           1 XNC       0.0557
     73 H29        30.3572    3.6945   46.5734 H           1 XNC       0.0599
     74 H30        31.2575    1.4695   46.9374 H           1 XNC       0.0559
     75 H31        29.7829   -0.4579   46.8731 H           1 XNC       0.0599
     76 H32        27.4417   -0.1801   46.3674 H           1 XNC       0.0557
@<TRIPOS>BOND
     1     1     2   2
     2     2     3   1
     3     2    10  am
     4     3     4  ar
     5     3     9  ar
     6     4     5  ar
     7     5     6  ar
     8     6     7  ar
     9     7     8   1
    10     7     9  ar
    11    10    11   1
    12    10    14   1
    13    11    12  ar
    14    11    26  ar
    15    12    13  ar
    16    13    29  ar
    17    14    15   1
    18    14    30   1
    19    15    16   1
    20    15    24   2
    21    16    17   2
    22    16    18   2
    23    16    19   1
    24    19    20   1
    25    20    21   1
    26    20    22   1
    27    20    23   1
    28    23    24   1
    29    24    25   1
    30    25    26   1
    31    26    27  ar
    32    27    28   1
    33    27    29  ar
    34    30    31  ar
    35    30    36  ar
    36    31    32   1
    37    31    33  ar
    38    33    34  ar
    39    34    35  ar
    40    34    37   1
    41    35    36  ar
    42    37    38   1
    43    38    39   1
    44    39    40  ar
    45    39    44  ar
    46    40    41  ar
    47    41    42  ar
    48    42    43  ar
    49    43    44  ar
    50     4    45   1
    51     5    46   1
    52     6    47   1
    53     8    48   1
    54     8    49   1
    55     8    50   1
    56    12    51   1
    57    13    52   1
    58    14    53   1
    59    19    54   1
    60    19    55   1
    61    21    56   1
    62    21    57   1
    63    21    58   1
    64    22    59   1
    65    22    60   1
    66    22    61   1
    67    23    62   1
    68    23    63   1
    69    25    64   1
    70    28    65   1
    71    29    66   1
    72    33    67   1
    73    35    68   1
    74    36    69   1
    75    38    70   1
    76    38    71   1
    77    40    72   1
    78    41    73   1
    79    42    74   1
    80    43    75   1
    81    44    76   1
@<TRIPOS>SUBSTRUCTURE
     1  XNC      2

