@<TRIPOS>MOLECULE
3gnw_ligand_014
    76    81
SMALL
GAST_HUCK
****
This file was generated by PARSER (from files_GN.cpp)

@<TRIPOS>ATOM
      1 O35        37.4992    4.4313   39.4597 O.2         1 XNC      -0.3687
      2 C16        36.5915    3.8474   38.8797 C.2         1 XNC       0.2510
      3 C17        36.8417    3.6299   37.5339 C.ar        1 XNC       0.1194
      4 C43        36.9777    2.3271   37.0049 C.ar        1 XNC      -0.0209
      5 C42        37.2262    2.1687   35.6300 C.ar        1 XNC      -0.0435
      6 C41        37.3172    3.2977   34.7985 C.ar        1 XNC      -0.0287
      7 C40        37.1646    4.5831   35.3569 C.ar        1 XNC       0.0301
      8 C44        37.2217    5.7901   34.5140 C.3         1 XNC      -0.0144
      9 N39        36.9453    4.6958   36.6939 N.ar        1 XNC      -0.2781
     10 N7         35.5136    3.3709   39.5471 N.am        1 XNC      -0.2078
     11 C4         34.3879    2.9535   38.8537 C.ar        1 XNC       0.0880
     12 C3         33.7531    3.8481   37.9522 C.ar        1 XNC      -0.0607
     13 C2         32.6359    3.4477   37.2051 C.ar        1 XNC      -0.0955
     14 C8         35.4874    3.2371   41.0069 C.3         1 XNC       0.1162
     15 C9         35.8727    1.8526   41.3679 C.2         1 XNC       0.0894
     16 S12        37.2491    1.6741   42.3973 S.o2        1 XNC      -0.0239
     17 O32        37.0039    2.4201   43.7799 O.2         1 XNC      -0.1768
     18 O33        38.4979    2.3697   41.6992 O.2         1 XNC      -0.1768
     19 C13        37.6758   -0.0518   42.7003 C.3         1 XNC       0.0705
     20 C14        37.0764   -0.9919   41.6081 C.3         1 XNC      -0.0050
     21 C37        37.8778   -0.8857   40.2742 C.3         1 XNC      -0.0565
     22 C38        37.1599   -2.4732   42.1063 C.3         1 XNC      -0.0565
     23 C15        35.5743   -0.6054   41.3765 C.3         1 XNC       0.0036
     24 C10        35.3046    0.7383   40.8370 C.2         1 XNC       0.0422
     25 N11        34.3267    0.7396   39.9147 N.pl3       1 XNC      -0.2908
     26 C5         33.8325    1.6611   39.0526 C.ar        1 XNC       0.1100
     27 C6         32.6850    1.2803   38.3097 C.ar        1 XNC       0.0976
     28 O36        32.0913    0.0675   38.4587 O.3         1 XNC      -0.3423
     29 C1         32.1022    2.1656   37.3862 C.ar        1 XNC      -0.0580
     30 C18        34.2482    3.8079   41.6671 C.ar        1 XNC       0.0130
     31 C23        34.2195    5.1611   42.1194 C.ar        1 XNC       0.1283
     32 F34        35.2473    5.9604   41.9760 F           1 XNC      -0.1917
     33 C22        33.0718    5.6994   42.7317 C.ar        1 XNC      -0.0061
     34 C21        31.9026    4.9287   42.8752 C.ar        1 XNC       0.0849
     35 C20        31.8841    3.6199   42.3588 C.ar        1 XNC      -0.0435
     36 C19        33.0460    3.0602   41.8028 C.ar        1 XNC      -0.0671
     37 O24        30.7821    5.4817   43.4468 O.3         1 XNC      -0.3110
     38 C25        30.7574    5.5293   44.8944 C.3         1 XNC       0.1027
     39 C26        29.8730    4.5258   45.5496 C.ar        1 XNC      -0.0131
     40 C31        29.1212    3.5671   44.8218 C.ar        1 XNC      -0.0578
     41 C30        28.2854    2.6525   45.4823 C.ar        1 XNC      -0.0685
     42 C29        28.1967    2.6657   46.8848 C.ar        1 XNC      -0.0687
     43 C28        28.9333    3.6117   47.6214 C.ar        1 XNC      -0.0685
     44 C27        29.7517    4.5415   46.9608 C.ar        1 XNC      -0.0578
     45 H1         36.9167    1.4982   37.6061 H           1 XNC       0.0705
     46 H2         37.3409    1.2340   35.2363 H           1 XNC       0.0729
     47 H3         37.4951    3.1792   33.7998 H           1 XNC       0.0684
     48 H4         37.0500    6.6936   35.1064 H           1 XNC       0.0421
     49 H5         36.4586    5.7351   33.7404 H           1 XNC       0.0421
     50 H6         38.2048    5.8637   34.0451 H           1 XNC       0.0421
     51 H7         34.1162    4.7951   37.8229 H           1 XNC       0.0382
     52 H8         32.2093    4.0923   36.5320 H           1 XNC       0.0451
     53 H9         36.2741    3.8702   41.4150 H           1 XNC       0.0812
     54 H10        37.2781   -0.3110   43.6833 H           1 XNC       0.0503
     55 H11        38.7625   -0.1486   42.7510 H           1 XNC       0.0503
     56 H12        37.4243   -1.5162   39.5068 H           1 XNC       0.0237
     57 H13        38.9135   -1.2075   40.4130 H           1 XNC       0.0237
     58 H14        37.8940    0.1395   39.9056 H           1 XNC       0.0237
     59 H15        36.6253   -2.6042   43.0500 H           1 XNC       0.0237
     60 H16        38.1976   -2.7718   42.2622 H           1 XNC       0.0237
     61 H17        36.7208   -3.1570   41.3763 H           1 XNC       0.0237
     62 H18        35.0385   -0.6738   42.3263 H           1 XNC       0.0444
     63 H19        35.1389   -1.3728   40.7269 H           1 XNC       0.0444
     64 H20        33.8713   -0.1130   39.8586 H           1 XNC       0.2009
     65 H21        31.8534   -0.0239   39.4041 H           1 XNC       0.2432
     66 H22        31.2824    1.8757   36.8456 H           1 XNC       0.0389
     67 H23        33.0699    6.6639   43.0642 H           1 XNC       0.0510
     68 H24        31.0256    3.0564   42.3947 H           1 XNC       0.0491
     69 H25        32.9828    2.0948   41.4812 H           1 XNC       0.0520
     70 H26        30.3646    6.5154   45.1454 H           1 XNC       0.0776
     71 H27        31.7638    5.4585   45.3377 H           1 XNC       0.0776
     72 H28        29.1624    3.5238   43.8019 H           1 XNC       0.0557
     73 H29        27.7461    1.9765   44.9407 H           1 XNC       0.0599
     74 H30        27.5955    1.9948   47.3640 H           1 XNC       0.0559
     75 H31        28.8616    3.6266   48.6421 H           1 XNC       0.0599
     76 H32        30.2667    5.2292   47.5176 H           1 XNC       0.0557
@<TRIPOS>BOND
     1     1     2   2
     2     2     3   1
     3     2    10  am
     4     3     4  ar
     5     3     9  ar
     6     4     5  ar
     7     5     6  ar
     8     6     7  ar
     9     7     8   1
    10     7     9  ar
    11    10    11   1
    12    10    14   1
    13    11    12  ar
    14    11    26  ar
    15    12    13  ar
    16    13    29  ar
    17    14    15   1
    18    14    30   1
    19    15    16   1
    20    15    24   2
    21    16    17   2
    22    16    18   2
    23    16    19   1
    24    19    20   1
    25    20    21   1
    26    20    22   1
    27    20    23   1
    28    23    24   1
    29    24    25   1
    30    25    26   1
    31    26    27  ar
    32    27    28   1
    33    27    29  ar
    34    30    31  ar
    35    30    36  ar
    36    31    32   1
    37    31    33  ar
    38    33    34  ar
    39    34    35  ar
    40    34    37   1
    41    35    36  ar
    42    37    38   1
    43    38    39   1
    44    39    40  ar
    45    39    44  ar
    46    40    41  ar
    47    41    42  ar
    48    42    43  ar
    49    43    44  ar
    50     4    45   1
    51     5    46   1
    52     6    47   1
    53     8    48   1
    54     8    49   1
    55     8    50   1
    56    12    51   1
    57    13    52   1
    58    14    53   1
    59    19    54   1
    60    19    55   1
    61    21    56   1
    62    21    57   1
    63    21    58   1
    64    22    59   1
    65    22    60   1
    66    22    61   1
    67    23    62   1
    68    23    63   1
    69    25    64   1
    70    28    65   1
    71    29    66   1
    72    33    67   1
    73    35    68   1
    74    36    69   1
    75    38    70   1
    76    38    71   1
    77    40    72   1
    78    41    73   1
    79    42    74   1
    80    43    75   1
    81    44    76   1
@<TRIPOS>SUBSTRUCTURE
     1  XNC      2

