@<TRIPOS>MOLECULE
3gnw_ligand_015
    76    81
SMALL
GAST_HUCK
****
This file was generated by PARSER (from files_GN.cpp)

@<TRIPOS>ATOM
      1 O35        29.8285    4.7917   41.9361 O.2         1 XNC      -0.3687
      2 C16        29.4564    3.6899   41.5466 C.2         1 XNC       0.2510
      3 C17        28.3163    3.2592   42.2053 C.ar        1 XNC       0.1194
      4 C43        27.0484    3.8115   41.9182 C.ar        1 XNC      -0.0209
      5 C42        25.9437    3.4363   42.7033 C.ar        1 XNC      -0.0435
      6 C41        26.1101    2.5244   43.7615 C.ar        1 XNC      -0.0287
      7 C40        27.3887    1.9876   44.0143 C.ar        1 XNC       0.0301
      8 C44        27.5988    1.0234   45.1088 C.3         1 XNC      -0.0144
      9 N39        28.4313    2.3823   43.2394 N.ar        1 XNC      -0.2781
     10 N7         30.1131    3.0481   40.5479 N.am        1 XNC      -0.2078
     11 C4         29.6153    1.8946   39.9679 C.ar        1 XNC       0.0880
     12 C3         29.5233    0.7063   40.7294 C.ar        1 XNC      -0.0607
     13 C2         29.0574   -0.4856   40.1569 C.ar        1 XNC      -0.0955
     14 C8         31.2902    3.6439   39.9090 C.3         1 XNC       0.1162
     15 C9         30.8274    4.5295   38.8211 C.2         1 XNC       0.0894
     16 S12        31.5108    6.1144   38.7807 S.o2        1 XNC      -0.0239
     17 O32        33.0831    5.9785   38.5847 O.2         1 XNC      -0.1768
     18 O33        31.2517    6.8809   40.1500 O.2         1 XNC      -0.1768
     19 C13        30.8363    7.0873   37.4219 C.3         1 XNC       0.0705
     20 C14        30.3633    6.1776   36.2477 C.3         1 XNC      -0.0050
     21 C37        29.5459    7.0581   35.2450 C.3         1 XNC      -0.0565
     22 C38        31.5742    5.5626   35.4704 C.3         1 XNC      -0.0565
     23 C15        29.4286    5.0601   36.8304 C.3         1 XNC       0.0036
     24 C10        29.9695    4.1349   37.8440 C.2         1 XNC       0.0422
     25 N11        29.4675    2.8911   37.7215 N.pl3       1 XNC      -0.2908
     26 C5         29.3059    1.8507   38.5799 C.ar        1 XNC       0.1100
     27 C6         28.8055    0.6493   38.0184 C.ar        1 XNC       0.0976
     28 O36        28.4708    0.5541   36.7052 O.3         1 XNC      -0.3423
     29 C1         28.6851   -0.5123   38.8029 C.ar        1 XNC      -0.0580
     30 C18        32.3838    2.6479   39.6146 C.ar        1 XNC       0.0130
     31 C23        32.7157    1.6727   40.5963 C.ar        1 XNC       0.1283
     32 F34        32.1043    1.6380   41.7532 F           1 XNC      -0.1917
     33 C22        33.7124    0.7084   40.3597 C.ar        1 XNC      -0.0061
     34 C21        34.4580    0.7254   39.1585 C.ar        1 XNC       0.0849
     35 C20        34.1298    1.6820   38.1775 C.ar        1 XNC      -0.0435
     36 C19        33.1094    2.6247   38.3995 C.ar        1 XNC      -0.0671
     37 O24        35.4849   -0.1318   38.8487 O.3         1 XNC      -0.3110
     38 C25        36.2173   -0.8180   39.8833 C.3         1 XNC       0.1027
     39 C26        37.0628    0.0652   40.7343 C.ar        1 XNC      -0.0131
     40 C31        37.4083    1.3639   40.2927 C.ar        1 XNC      -0.0578
     41 C30        38.1872    2.2159   41.0994 C.ar        1 XNC      -0.0685
     42 C29        38.6332    1.7764   42.3575 C.ar        1 XNC      -0.0687
     43 C28        38.3037    0.4860   42.8097 C.ar        1 XNC      -0.0685
     44 C27        37.5234   -0.3655   42.0015 C.ar        1 XNC      -0.0578
     45 H1         26.9284    4.5007   41.1684 H           1 XNC       0.0705
     46 H2         25.0198    3.8407   42.5173 H           1 XNC       0.0729
     47 H3         25.3059    2.2635   44.3390 H           1 XNC       0.0684
     48 H4         28.6461    0.7149   45.1724 H           1 XNC       0.0421
     49 H5         26.9893    0.1307   44.9396 H           1 XNC       0.0421
     50 H6         27.3123    1.4731   46.0646 H           1 XNC       0.0421
     51 H7         29.8266    0.6892   41.7012 H           1 XNC       0.0382
     52 H8         28.9949   -1.3393   40.7191 H           1 XNC       0.0451
     53 H9         31.7890    4.2766   40.6490 H           1 XNC       0.0812
     54 H10        31.5880    7.8067   37.0871 H           1 XNC       0.0503
     55 H11        29.9898    7.6502   37.8244 H           1 XNC       0.0503
     56 H12        29.1975    6.4630   34.3988 H           1 XNC       0.0237
     57 H13        30.1598    7.8738   34.8563 H           1 XNC       0.0237
     58 H14        28.6709    7.4967   35.7288 H           1 XNC       0.0237
     59 H15        32.1871    4.9359   36.1173 H           1 XNC       0.0237
     60 H16        32.2102    6.3558   35.0672 H           1 XNC       0.0237
     61 H17        31.2244    4.9473   34.6354 H           1 XNC       0.0237
     62 H18        29.0360    4.4966   35.9748 H           1 XNC       0.0444
     63 H19        28.5609    5.5397   37.2952 H           1 XNC       0.0444
     64 H20        29.1260    2.7040   36.8326 H           1 XNC       0.2009
     65 H21        27.4912    0.6734   36.6809 H           1 XNC       0.2432
     66 H22        28.3366   -1.3840   38.3848 H           1 XNC       0.0389
     67 H23        33.9070    0.0064   41.0781 H           1 XNC       0.0510
     68 H24        34.6558    1.7078   37.2933 H           1 XNC       0.0491
     69 H25        32.9107    3.2978   37.6590 H           1 XNC       0.0520
     70 H26        36.8734   -1.5359   39.3789 H           1 XNC       0.0776
     71 H27        35.5032   -1.3918   40.4851 H           1 XNC       0.0776
     72 H28        37.0868    1.7013   39.3805 H           1 XNC       0.0557
     73 H29        38.4222    3.1537   40.7718 H           1 XNC       0.0599
     74 H30        39.1958    2.3926   42.9454 H           1 XNC       0.0559
     75 H31        38.6259    0.1636   43.7262 H           1 XNC       0.0599
     76 H32        37.2907   -1.2980   42.3500 H           1 XNC       0.0557
@<TRIPOS>BOND
     1     1     2   2
     2     2     3   1
     3     2    10  am
     4     3     4  ar
     5     3     9  ar
     6     4     5  ar
     7     5     6  ar
     8     6     7  ar
     9     7     8   1
    10     7     9  ar
    11    10    11   1
    12    10    14   1
    13    11    12  ar
    14    11    26  ar
    15    12    13  ar
    16    13    29  ar
    17    14    15   1
    18    14    30   1
    19    15    16   1
    20    15    24   2
    21    16    17   2
    22    16    18   2
    23    16    19   1
    24    19    20   1
    25    20    21   1
    26    20    22   1
    27    20    23   1
    28    23    24   1
    29    24    25   1
    30    25    26   1
    31    26    27  ar
    32    27    28   1
    33    27    29  ar
    34    30    31  ar
    35    30    36  ar
    36    31    32   1
    37    31    33  ar
    38    33    34  ar
    39    34    35  ar
    40    34    37   1
    41    35    36  ar
    42    37    38   1
    43    38    39   1
    44    39    40  ar
    45    39    44  ar
    46    40    41  ar
    47    41    42  ar
    48    42    43  ar
    49    43    44  ar
    50     4    45   1
    51     5    46   1
    52     6    47   1
    53     8    48   1
    54     8    49   1
    55     8    50   1
    56    12    51   1
    57    13    52   1
    58    14    53   1
    59    19    54   1
    60    19    55   1
    61    21    56   1
    62    21    57   1
    63    21    58   1
    64    22    59   1
    65    22    60   1
    66    22    61   1
    67    23    62   1
    68    23    63   1
    69    25    64   1
    70    28    65   1
    71    29    66   1
    72    33    67   1
    73    35    68   1
    74    36    69   1
    75    38    70   1
    76    38    71   1
    77    40    72   1
    78    41    73   1
    79    42    74   1
    80    43    75   1
    81    44    76   1
@<TRIPOS>SUBSTRUCTURE
     1  XNC      2

