@<TRIPOS>MOLECULE
3gnw_ligand_041
    76    81
SMALL
GAST_HUCK
****
This file was generated by PARSER (from files_GN.cpp)

@<TRIPOS>ATOM
      1 O35        28.5645    0.7018   34.1888 O.2         1 XNC      -0.3687
      2 C16        28.8990    1.3652   35.1669 C.2         1 XNC       0.2510
      3 C17        30.2999    1.4869   35.3002 C.ar        1 XNC       0.1194
      4 C43        31.2178    0.5300   34.7918 C.ar        1 XNC      -0.0209
      5 C42        32.6031    0.6809   35.0026 C.ar        1 XNC      -0.0435
      6 C41        33.0923    1.7995   35.6996 C.ar        1 XNC      -0.0287
      7 C40        32.1770    2.7681   36.1525 C.ar        1 XNC       0.0301
      8 C44        32.6026    3.9394   36.9417 C.3         1 XNC      -0.0144
      9 N39        30.8555    2.5714   35.9072 N.ar        1 XNC      -0.2781
     10 N7         27.9021    1.8636   35.9597 N.am        1 XNC      -0.2078
     11 C4         26.5653    1.8267   35.5325 C.ar        1 XNC       0.0880
     12 C3         26.2361    2.3611   34.2556 C.ar        1 XNC      -0.0607
     13 C2         24.9131    2.4009   33.7951 C.ar        1 XNC      -0.0955
     14 C8         28.1071    2.4459   37.2961 C.3         1 XNC       0.1162
     15 C9         27.8771    1.4039   38.3170 C.2         1 XNC       0.0894
     16 S12        29.2024    1.0364   39.3652 S.o2        1 XNC      -0.0239
     17 O32        29.7436    2.3460   40.0881 O.2         1 XNC      -0.1768
     18 O33        30.3869    0.4414   38.4871 O.2         1 XNC      -0.1768
     19 C13        28.7344   -0.1862   40.6024 C.3         1 XNC       0.0705
     20 C14        27.5731   -1.0924   40.0912 C.3         1 XNC      -0.0050
     21 C37        28.0603   -2.0707   38.9703 C.3         1 XNC      -0.0565
     22 C38        27.0566   -1.9556   41.2915 C.3         1 XNC      -0.0565
     23 C15        26.4181   -0.1624   39.5767 C.3         1 XNC       0.0036
     24 C10        26.7097    0.7208   38.4327 C.2         1 XNC       0.0422
     25 N11        25.6503    0.8987   37.6322 N.pl3       1 XNC      -0.2908
     26 C5         25.5013    1.3769   36.3676 C.ar        1 XNC       0.1100
     27 C6         24.1677    1.4025   35.8804 C.ar        1 XNC       0.0976
     28 O36        23.1051    0.9648   36.6117 O.3         1 XNC      -0.3423
     29 C1         23.8807    1.9141   34.6033 C.ar        1 XNC      -0.0580
     30 C18        27.4749    3.8020   37.5072 C.ar        1 XNC       0.0130
     31 C23        27.6172    4.8081   36.5110 C.ar        1 XNC       0.1283
     32 F34        28.2811    4.6006   35.4057 F           1 XNC      -0.1917
     33 C22        27.0700    6.0912   36.6889 C.ar        1 XNC      -0.0061
     34 C21        26.4579    6.4448   37.9050 C.ar        1 XNC       0.0849
     35 C20        26.3593    5.4836   38.9258 C.ar        1 XNC      -0.0435
     36 C19        26.8469    4.1772   38.7240 C.ar        1 XNC      -0.0671
     37 O24        25.9810    7.7164   38.0940 O.3         1 XNC      -0.3110
     38 C25        26.9924    8.7210   38.3203 C.3         1 XNC       0.1027
     39 C26        27.3636    8.8069   39.7541 C.ar        1 XNC      -0.0131
     40 C31        26.5615    9.5587   40.6427 C.ar        1 XNC      -0.0578
     41 C30        26.9305    9.7097   41.9898 C.ar        1 XNC      -0.0685
     42 C29        28.0947    9.0870   42.4716 C.ar        1 XNC      -0.0687
     43 C28        28.8794    8.2999   41.6090 C.ar        1 XNC      -0.0685
     44 C27        28.5177    8.1605   40.2555 C.ar        1 XNC      -0.0578
     45 H1         30.8870   -0.3032   34.2934 H           1 XNC       0.0705
     46 H2         33.2551   -0.0236   34.6542 H           1 XNC       0.0729
     47 H3         34.0939    1.8960   35.8820 H           1 XNC       0.0684
     48 H4         31.7523    4.5848   37.1797 H           1 XNC       0.0421
     49 H5         33.3384    4.5244   36.3876 H           1 XNC       0.0421
     50 H6         33.0449    3.6029   37.8809 H           1 XNC       0.0421
     51 H7         26.9664    2.7408   33.6486 H           1 XNC       0.0382
     52 H8         24.7022    2.7914   32.8719 H           1 XNC       0.0451
     53 H9         29.1366    2.7344   37.4191 H           1 XNC       0.0812
     54 H10        28.4193    0.3623   41.4938 H           1 XNC       0.0503
     55 H11        29.6109   -0.7792   40.8654 H           1 XNC       0.0503
     56 H12        27.2492   -2.7314   38.6564 H           1 XNC       0.0237
     57 H13        28.8848   -2.6901   39.3317 H           1 XNC       0.0237
     58 H14        28.4084   -1.5303   38.0897 H           1 XNC       0.0237
     59 H15        26.7055   -1.3228   42.1096 H           1 XNC       0.0237
     60 H16        27.8535   -2.5963   41.6779 H           1 XNC       0.0237
     61 H17        26.2275   -2.5959   40.9825 H           1 XNC       0.0237
     62 H18        26.0989    0.4875   40.3979 H           1 XNC       0.0444
     63 H19        25.5609   -0.8071   39.3447 H           1 XNC       0.0444
     64 H20        24.8172    0.5930   38.0256 H           1 XNC       0.2009
     65 H21        23.2480    0.0011   36.7302 H           1 XNC       0.2432
     66 H22        22.9169    1.9458   34.2717 H           1 XNC       0.0389
     67 H23        27.1544    6.7876   35.9433 H           1 XNC       0.0510
     68 H24        25.9459    5.7404   39.8257 H           1 XNC       0.0491
     69 H25        26.7663    3.5130   39.4953 H           1 XNC       0.0520
     70 H26        26.5728    9.6803   38.0087 H           1 XNC       0.0776
     71 H27        27.8768    8.5730   37.6922 H           1 XNC       0.0776
     72 H28        25.7213   10.0334   40.3058 H           1 XNC       0.0557
     73 H29        26.3567   10.2815   42.6128 H           1 XNC       0.0599
     74 H30        28.3659    9.2033   43.4498 H           1 XNC       0.0559
     75 H31        29.7187    7.8378   41.9640 H           1 XNC       0.0599
     76 H32        29.1046    7.5928   39.6380 H           1 XNC       0.0557
@<TRIPOS>BOND
     1     1     2   2
     2     2     3   1
     3     2    10  am
     4     3     4  ar
     5     3     9  ar
     6     4     5  ar
     7     5     6  ar
     8     6     7  ar
     9     7     8   1
    10     7     9  ar
    11    10    11   1
    12    10    14   1
    13    11    12  ar
    14    11    26  ar
    15    12    13  ar
    16    13    29  ar
    17    14    15   1
    18    14    30   1
    19    15    16   1
    20    15    24   2
    21    16    17   2
    22    16    18   2
    23    16    19   1
    24    19    20   1
    25    20    21   1
    26    20    22   1
    27    20    23   1
    28    23    24   1
    29    24    25   1
    30    25    26   1
    31    26    27  ar
    32    27    28   1
    33    27    29  ar
    34    30    31  ar
    35    30    36  ar
    36    31    32   1
    37    31    33  ar
    38    33    34  ar
    39    34    35  ar
    40    34    37   1
    41    35    36  ar
    42    37    38   1
    43    38    39   1
    44    39    40  ar
    45    39    44  ar
    46    40    41  ar
    47    41    42  ar
    48    42    43  ar
    49    43    44  ar
    50     4    45   1
    51     5    46   1
    52     6    47   1
    53     8    48   1
    54     8    49   1
    55     8    50   1
    56    12    51   1
    57    13    52   1
    58    14    53   1
    59    19    54   1
    60    19    55   1
    61    21    56   1
    62    21    57   1
    63    21    58   1
    64    22    59   1
    65    22    60   1
    66    22    61   1
    67    23    62   1
    68    23    63   1
    69    25    64   1
    70    28    65   1
    71    29    66   1
    72    33    67   1
    73    35    68   1
    74    36    69   1
    75    38    70   1
    76    38    71   1
    77    40    72   1
    78    41    73   1
    79    42    74   1
    80    43    75   1
    81    44    76   1
@<TRIPOS>SUBSTRUCTURE
     1  XNC      2

