@<TRIPOS>MOLECULE
3gnw_ligand_067
    76    81
SMALL
GAST_HUCK
****
This file was generated by PARSER (from files_GN.cpp)

@<TRIPOS>ATOM
      1 O35        38.4251    3.4974   39.0847 O.2         1 XNC      -0.3687
      2 C16        37.8598    2.4116   39.1657 C.2         1 XNC       0.2510
      3 C17        37.2716    1.9953   37.9574 C.ar        1 XNC       0.1194
      4 C43        37.8608    2.2890   36.6994 C.ar        1 XNC      -0.0209
      5 C42        37.2301    1.8820   35.5119 C.ar        1 XNC      -0.0435
      6 C41        36.0085    1.1901   35.5647 C.ar        1 XNC      -0.0287
      7 C40        35.4366    0.9125   36.8192 C.ar        1 XNC       0.0301
      8 C44        34.1422    0.2138   36.9328 C.3         1 XNC      -0.0144
      9 N39        36.0897    1.3236   37.9377 N.ar        1 XNC      -0.2781
     10 N7         37.9187    1.7469   40.3486 N.am        1 XNC      -0.2078
     11 C4         37.2671    0.5487   40.5583 C.ar        1 XNC       0.0880
     12 C3         35.8624    0.5438   40.7269 C.ar        1 XNC      -0.0607
     13 C2         35.1744   -0.6533   40.9811 C.ar        1 XNC      -0.0955
     14 C8         38.8598    2.1309   41.4080 C.3         1 XNC       0.1162
     15 C9         40.1686    1.5045   41.1173 C.2         1 XNC       0.0894
     16 S12        41.5030    2.5895   40.9281 S.o2        1 XNC      -0.0239
     17 O32        41.7262    3.4585   42.2411 O.2         1 XNC      -0.1768
     18 O33        41.1929    3.6021   39.7417 O.2         1 XNC      -0.1768
     19 C13        43.0154    1.7171   40.4889 C.3         1 XNC       0.0705
     20 C14        42.7016    0.3418   39.8216 C.3         1 XNC      -0.0050
     21 C37        42.1509    0.5099   38.3653 C.3         1 XNC      -0.0565
     22 C38        44.0310   -0.4773   39.7456 C.3         1 XNC      -0.0565
     23 C15        41.6727   -0.4207   40.7267 C.3         1 XNC       0.0036
     24 C10        40.3341    0.1837   40.8485 C.2         1 XNC       0.0422
     25 N11        39.3479   -0.7341   40.8050 N.pl3       1 XNC      -0.2908
     26 C5         37.9947   -0.6548   40.7602 C.ar        1 XNC       0.1100
     27 C6         37.2880   -1.8606   40.9853 C.ar        1 XNC       0.0976
     28 O36        37.9425   -3.0458   41.1262 O.3         1 XNC      -0.3423
     29 C1         35.8861   -1.8577   41.0982 C.ar        1 XNC      -0.0580
     30 C18        38.2853    1.9880   42.8006 C.ar        1 XNC       0.0130
     31 C23        37.3855    2.9792   43.2803 C.ar        1 XNC       0.1283
     32 F34        37.1152    4.0555   42.5882 F           1 XNC      -0.1917
     33 C22        36.7865    2.8670   44.5461 C.ar        1 XNC      -0.0061
     34 C21        37.1084    1.7967   45.3995 C.ar        1 XNC       0.0849
     35 C20        37.9403    0.7662   44.9179 C.ar        1 XNC      -0.0435
     36 C19        38.5201    0.8648   43.6379 C.ar        1 XNC      -0.0671
     37 O24        36.6185    1.7997   46.6847 O.3         1 XNC      -0.3110
     38 C25        37.3517    2.6117   47.6415 C.3         1 XNC       0.1027
     39 C26        37.4812    4.0379   47.2222 C.ar        1 XNC      -0.0131
     40 C31        38.6195    4.4520   46.4893 C.ar        1 XNC      -0.0578
     41 C30        38.6378    5.6974   45.8372 C.ar        1 XNC      -0.0685
     42 C29        37.5359    6.5644   45.9387 C.ar        1 XNC      -0.0687
     43 C28        36.4134    6.1826   46.6972 C.ar        1 XNC      -0.0685
     44 C27        36.3821    4.9225   47.3245 C.ar        1 XNC      -0.0578
     45 H1         38.7518    2.7860   36.6357 H           1 XNC       0.0705
     46 H2         37.6565    2.0967   34.6055 H           1 XNC       0.0729
     47 H3         35.5468    0.9057   34.6992 H           1 XNC       0.0684
     48 H4         33.8360    0.1056   37.9748 H           1 XNC       0.0421
     49 H5         34.2124   -0.7839   36.4876 H           1 XNC       0.0421
     50 H6         33.3659    0.7767   36.4032 H           1 XNC       0.0421
     51 H7         35.3278    1.4162   40.6513 H           1 XNC       0.0382
     52 H8         34.1583   -0.6472   41.0688 H           1 XNC       0.0451
     53 H9         39.0221    3.2124   41.3523 H           1 XNC       0.0812
     54 H10        43.5724    1.5689   41.4173 H           1 XNC       0.0503
     55 H11        43.6153    2.3499   39.8305 H           1 XNC       0.0503
     56 H12        41.9499   -0.4660   37.9162 H           1 XNC       0.0237
     57 H13        42.8749    1.0327   37.7368 H           1 XNC       0.0237
     58 H14        41.2205    1.0799   38.3479 H           1 XNC       0.0237
     59 H15        44.4452   -0.6431   40.7436 H           1 XNC       0.0237
     60 H16        44.7785    0.0531   39.1514 H           1 XNC       0.0237
     61 H17        43.8610   -1.4539   39.2853 H           1 XNC       0.0237
     62 H18        42.0765   -0.4963   41.7417 H           1 XNC       0.0444
     63 H19        41.6027   -1.4478   40.3487 H           1 XNC       0.0444
     64 H20        39.6709   -1.6465   40.8576 H           1 XNC       0.2009
     65 H21        37.9375   -3.2484   42.0873 H           1 XNC       0.2432
     66 H22        35.3873   -2.7312   41.2705 H           1 XNC       0.0389
     67 H23        36.1456    3.5942   44.8715 H           1 XNC       0.0510
     68 H24        38.1341   -0.0523   45.5033 H           1 XNC       0.0491
     69 H25        39.1011    0.0938   43.3156 H           1 XNC       0.0520
     70 H26        38.3345    2.1680   47.8321 H           1 XNC       0.0776
     71 H27        36.8063    2.5598   48.5880 H           1 XNC       0.0776
     72 H28        39.4026    3.8123   46.3456 H           1 XNC       0.0557
     73 H29        39.4275    5.9443   45.2395 H           1 XNC       0.0599
     74 H30        37.5419    7.4594   45.4455 H           1 XNC       0.0559
     75 H31        35.5961    6.7944   46.7368 H           1 XNC       0.0599
     76 H32        35.5248    4.6254   47.7942 H           1 XNC       0.0557
@<TRIPOS>BOND
     1     1     2   2
     2     2     3   1
     3     2    10  am
     4     3     4  ar
     5     3     9  ar
     6     4     5  ar
     7     5     6  ar
     8     6     7  ar
     9     7     8   1
    10     7     9  ar
    11    10    11   1
    12    10    14   1
    13    11    12  ar
    14    11    26  ar
    15    12    13  ar
    16    13    29  ar
    17    14    15   1
    18    14    30   1
    19    15    16   1
    20    15    24   2
    21    16    17   2
    22    16    18   2
    23    16    19   1
    24    19    20   1
    25    20    21   1
    26    20    22   1
    27    20    23   1
    28    23    24   1
    29    24    25   1
    30    25    26   1
    31    26    27  ar
    32    27    28   1
    33    27    29  ar
    34    30    31  ar
    35    30    36  ar
    36    31    32   1
    37    31    33  ar
    38    33    34  ar
    39    34    35  ar
    40    34    37   1
    41    35    36  ar
    42    37    38   1
    43    38    39   1
    44    39    40  ar
    45    39    44  ar
    46    40    41  ar
    47    41    42  ar
    48    42    43  ar
    49    43    44  ar
    50     4    45   1
    51     5    46   1
    52     6    47   1
    53     8    48   1
    54     8    49   1
    55     8    50   1
    56    12    51   1
    57    13    52   1
    58    14    53   1
    59    19    54   1
    60    19    55   1
    61    21    56   1
    62    21    57   1
    63    21    58   1
    64    22    59   1
    65    22    60   1
    66    22    61   1
    67    23    62   1
    68    23    63   1
    69    25    64   1
    70    28    65   1
    71    29    66   1
    72    33    67   1
    73    35    68   1
    74    36    69   1
    75    38    70   1
    76    38    71   1
    77    40    72   1
    78    41    73   1
    79    42    74   1
    80    43    75   1
    81    44    76   1
@<TRIPOS>SUBSTRUCTURE
     1  XNC      2

