@<TRIPOS>MOLECULE
3gnw_ligand_040
    76    81
SMALL
GAST_HUCK
****
This file was generated by PARSER (from files_GN.cpp)

@<TRIPOS>ATOM
      1 O35        36.7558    1.7157   45.5034 O.2         1 XNC      -0.3687
      2 C16        36.1555    2.6865   45.9499 C.2         1 XNC       0.2510
      3 C17        36.4275    2.8943   47.2935 C.ar        1 XNC       0.1194
      4 C43        35.5699    2.4273   48.3159 C.ar        1 XNC      -0.0209
      5 C42        35.9280    2.6537   49.6563 C.ar        1 XNC      -0.0435
      6 C41        37.1351    3.3086   49.9646 C.ar        1 XNC      -0.0287
      7 C40        37.9741    3.7460   48.9167 C.ar        1 XNC       0.0301
      8 C44        39.2692    4.4059   49.1489 C.3         1 XNC      -0.0144
      9 N39        37.5841    3.5233   47.6325 N.ar        1 XNC      -0.2781
     10 N7         35.4581    3.5264   45.1452 N.am        1 XNC      -0.2078
     11 C4         34.8374    4.6251   45.6838 C.ar        1 XNC       0.0880
     12 C3         33.7571    4.4575   46.5833 C.ar        1 XNC      -0.0607
     13 C2         33.1201    5.5678   47.1571 C.ar        1 XNC      -0.0955
     14 C8         35.4630    3.4039   43.6865 C.3         1 XNC       0.1162
     15 C9         36.5526    4.2117   43.1097 C.2         1 XNC       0.0894
     16 S12        37.5712    3.3826   41.9829 S.o2        1 XNC      -0.0239
     17 O32        36.7520    2.9561   40.6896 O.2         1 XNC      -0.1768
     18 O33        38.1418    2.0548   42.6515 O.2         1 XNC      -0.1768
     19 C13        38.9954    4.3808   41.5082 C.3         1 XNC       0.0705
     20 C14        39.3095    5.4597   42.5892 C.3         1 XNC      -0.0050
     21 C37        39.9178    4.8314   43.8889 C.3         1 XNC      -0.0565
     22 C38        40.3591    6.4578   42.0023 C.3         1 XNC      -0.0565
     23 C15        37.9803    6.2335   42.8973 C.3         1 XNC       0.0036
     24 C10        36.8887    5.4645   43.5252 C.2         1 XNC       0.0422
     25 N11        36.2159    6.2076   44.4226 N.pl3       1 XNC      -0.2908
     26 C5         35.2735    5.9293   45.3599 C.ar        1 XNC       0.1100
     27 C6         34.6671    7.0427   45.9938 C.ar        1 XNC       0.0976
     28 O36        35.0742    8.3150   45.7272 O.3         1 XNC      -0.3423
     29 C1         33.5824    6.8613   46.8726 C.ar        1 XNC      -0.0580
     30 C18        34.1329    3.5215   42.9547 C.ar        1 XNC       0.0130
     31 C23        33.6668    2.5175   42.0524 C.ar        1 XNC       0.1283
     32 F34        34.3775    1.4642   41.7535 F           1 XNC      -0.1917
     33 C22        32.3929    2.5995   41.4558 C.ar        1 XNC      -0.0061
     34 C21        31.5320    3.6775   41.7285 C.ar        1 XNC       0.0849
     35 C20        31.9908    4.7162   42.5503 C.ar        1 XNC      -0.0435
     36 C19        33.2745    4.6474   43.1343 C.ar        1 XNC      -0.0671
     37 O24        30.2853    3.7664   41.1830 O.3         1 XNC      -0.3110
     38 C25        29.2601    3.0637   41.9204 C.3         1 XNC       0.1027
     39 C26        27.8955    3.3960   41.4270 C.ar        1 XNC      -0.0131
     40 C31        27.6383    3.5623   40.0454 C.ar        1 XNC      -0.0578
     41 C30        26.3393    3.8462   39.5881 C.ar        1 XNC      -0.0685
     42 C29        25.2756    3.9478   40.5033 C.ar        1 XNC      -0.0687
     43 C28        25.5144    3.7674   41.8778 C.ar        1 XNC      -0.0685
     44 C27        26.8151    3.4935   42.3358 C.ar        1 XNC      -0.0578
     45 H1         34.6988    1.9400   48.0934 H           1 XNC       0.0705
     46 H2         35.3168    2.3302   50.4092 H           1 XNC       0.0729
     47 H3         37.3937    3.4619   50.9428 H           1 XNC       0.0684
     48 H4         39.2725    5.3799   48.6594 H           1 XNC       0.0421
     49 H5         40.0701    3.7953   48.7279 H           1 XNC       0.0421
     50 H6         39.4652    4.5490   50.2134 H           1 XNC       0.0421
     51 H7         33.4182    3.5224   46.8165 H           1 XNC       0.0382
     52 H8         32.3349    5.4381   47.7997 H           1 XNC       0.0451
     53 H9         35.7403    2.3712   43.5021 H           1 XNC       0.0812
     54 H10        38.7490    4.8621   40.5588 H           1 XNC       0.0503
     55 H11        39.8566    3.7312   41.3383 H           1 XNC       0.0503
     56 H12        40.1205    5.6061   44.6314 H           1 XNC       0.0237
     57 H13        40.8566    4.3198   43.6655 H           1 XNC       0.0237
     58 H14        39.2410    4.1064   44.3420 H           1 XNC       0.0237
     59 H15        39.9679    6.9525   41.1109 H           1 XNC       0.0237
     60 H16        41.2785    5.9366   41.7265 H           1 XNC       0.0237
     61 H17        40.6127    7.2295   42.7317 H           1 XNC       0.0237
     62 H18        37.5853    6.6550   41.9662 H           1 XNC       0.0444
     63 H19        38.2504    7.0922   43.5242 H           1 XNC       0.0444
     64 H20        36.4378    7.1515   44.3742 H           1 XNC       0.2009
     65 H21        35.1585    8.7615   46.6027 H           1 XNC       0.2432
     66 H22        33.1295    7.6699   47.3058 H           1 XNC       0.0389
     67 H23        32.0838    1.8572   40.8238 H           1 XNC       0.0510
     68 H24        31.4009    5.5314   42.7331 H           1 XNC       0.0491
     69 H25        33.5678    5.4527   43.7089 H           1 XNC       0.0520
     70 H26        29.3431    3.3111   42.9876 H           1 XNC       0.0776
     71 H27        29.3934    1.9832   41.8085 H           1 XNC       0.0776
     72 H28        28.3923    3.4740   39.3608 H           1 XNC       0.0557
     73 H29        26.1637    3.9714   38.5912 H           1 XNC       0.0599
     74 H30        24.3281    4.1489   40.1713 H           1 XNC       0.0559
     75 H31        24.7418    3.8323   42.5420 H           1 XNC       0.0599
     76 H32        26.9664    3.3516   43.3365 H           1 XNC       0.0557
@<TRIPOS>BOND
     1     1     2   2
     2     2     3   1
     3     2    10  am
     4     3     4  ar
     5     3     9  ar
     6     4     5  ar
     7     5     6  ar
     8     6     7  ar
     9     7     8   1
    10     7     9  ar
    11    10    11   1
    12    10    14   1
    13    11    12  ar
    14    11    26  ar
    15    12    13  ar
    16    13    29  ar
    17    14    15   1
    18    14    30   1
    19    15    16   1
    20    15    24   2
    21    16    17   2
    22    16    18   2
    23    16    19   1
    24    19    20   1
    25    20    21   1
    26    20    22   1
    27    20    23   1
    28    23    24   1
    29    24    25   1
    30    25    26   1
    31    26    27  ar
    32    27    28   1
    33    27    29  ar
    34    30    31  ar
    35    30    36  ar
    36    31    32   1
    37    31    33  ar
    38    33    34  ar
    39    34    35  ar
    40    34    37   1
    41    35    36  ar
    42    37    38   1
    43    38    39   1
    44    39    40  ar
    45    39    44  ar
    46    40    41  ar
    47    41    42  ar
    48    42    43  ar
    49    43    44  ar
    50     4    45   1
    51     5    46   1
    52     6    47   1
    53     8    48   1
    54     8    49   1
    55     8    50   1
    56    12    51   1
    57    13    52   1
    58    14    53   1
    59    19    54   1
    60    19    55   1
    61    21    56   1
    62    21    57   1
    63    21    58   1
    64    22    59   1
    65    22    60   1
    66    22    61   1
    67    23    62   1
    68    23    63   1
    69    25    64   1
    70    28    65   1
    71    29    66   1
    72    33    67   1
    73    35    68   1
    74    36    69   1
    75    38    70   1
    76    38    71   1
    77    40    72   1
    78    41    73   1
    79    42    74   1
    80    43    75   1
    81    44    76   1
@<TRIPOS>SUBSTRUCTURE
     1  XNC      2

