@<TRIPOS>MOLECULE
3gnw_ligand_085
    76    81
SMALL
GAST_HUCK
****
This file was generated by PARSER (from files_GN.cpp)

@<TRIPOS>ATOM
      1 O35        30.6262    0.9002   34.0777 O.2         1 XNC      -0.3687
      2 C16        30.7247    1.4053   35.1933 C.2         1 XNC       0.2510
      3 C17        32.0175    1.4083   35.6950 C.ar        1 XNC       0.1194
      4 C43        32.8327    0.2538   35.7269 C.ar        1 XNC      -0.0209
      5 C42        34.1568    0.3545   36.1869 C.ar        1 XNC      -0.0435
      6 C41        34.6747    1.6041   36.5730 C.ar        1 XNC      -0.0287
      7 C40        33.8486    2.7450   36.4979 C.ar        1 XNC       0.0301
      8 C44        34.3583    4.0835   36.8391 C.3         1 XNC      -0.0144
      9 N39        32.5678    2.5957   36.0676 N.ar        1 XNC      -0.2781
     10 N7         29.6437    1.9671   35.7855 N.am        1 XNC      -0.2078
     11 C4         28.5000    2.1851   35.0417 C.ar        1 XNC       0.0880
     12 C3         28.5491    3.0963   33.9583 C.ar        1 XNC      -0.0607
     13 C2         27.4097    3.3471   33.1785 C.ar        1 XNC      -0.0955
     14 C8         29.5404    2.2107   37.2257 C.3         1 XNC       0.1162
     15 C9         28.9932    0.9933   37.8681 C.2         1 XNC       0.0894
     16 S12        29.8729    0.4012   39.2337 S.o2        1 XNC      -0.0239
     17 O32        29.8236    1.4805   40.4055 O.2         1 XNC      -0.1768
     18 O33        31.4048    0.1603   38.8640 O.2         1 XNC      -0.1768
     19 C13        29.1995   -1.1595   39.8274 C.3         1 XNC       0.0705
     20 C14        27.6673   -1.2360   39.5695 C.3         1 XNC      -0.0050
     21 C37        27.1788   -2.6856   39.8966 C.3         1 XNC      -0.0565
     22 C38        26.8817   -0.2623   40.5090 C.3         1 XNC      -0.0565
     23 C15        27.3921   -0.9236   38.0561 C.3         1 XNC       0.0036
     24 C10        27.8790    0.3349   37.4541 C.2         1 XNC       0.0422
     25 N11        27.1000    0.7185   36.4213 N.pl3       1 XNC      -0.2908
     26 C5         27.2732    1.5507   35.3633 C.ar        1 XNC       0.1100
     27 C6         26.1494    1.7562   34.5220 C.ar        1 XNC       0.0976
     28 O36        24.9846    1.0898   34.7323 O.3         1 XNC      -0.3423
     29 C1         26.2129    2.6686   33.4513 C.ar        1 XNC      -0.0580
     30 C18        28.9389    3.5608   37.5473 C.ar        1 XNC       0.0130
     31 C23        27.7590    3.7971   38.3086 C.ar        1 XNC       0.1283
     32 F34        27.0400    2.8413   38.8303 F           1 XNC      -0.1917
     33 C22        27.2854    5.1047   38.5300 C.ar        1 XNC      -0.0061
     34 C21        27.9528    6.2123   37.9805 C.ar        1 XNC       0.0849
     35 C20        29.1294    6.0035   37.2429 C.ar        1 XNC      -0.0435
     36 C19        29.6109    4.7001   37.0295 C.ar        1 XNC      -0.0671
     37 O24        27.4993    7.4950   38.1531 O.3         1 XNC      -0.3110
     38 C25        26.2734    7.8189   37.4615 C.3         1 XNC       0.1027
     39 C26        26.3699    7.7098   35.9804 C.ar        1 XNC      -0.0131
     40 C31        27.2513    8.5561   35.2678 C.ar        1 XNC      -0.0578
     41 C30        27.3800    8.4415   33.8702 C.ar        1 XNC      -0.0685
     42 C29        26.6291    7.4791   33.1699 C.ar        1 XNC      -0.0687
     43 C28        25.7486    6.6339   33.8679 C.ar        1 XNC      -0.0685
     44 C27        25.6217    6.7463   35.2640 C.ar        1 XNC      -0.0578
     45 H1         32.4723   -0.6549   35.4296 H           1 XNC       0.0705
     46 H2         34.7493   -0.4791   36.2309 H           1 XNC       0.0729
     47 H3         35.6449    1.6767   36.8940 H           1 XNC       0.0684
     48 H4         33.5860    4.8439   36.7092 H           1 XNC       0.0421
     49 H5         35.2000    4.3333   36.1902 H           1 XNC       0.0421
     50 H6         34.6915    4.0977   37.8777 H           1 XNC       0.0421
     51 H7         29.4222    3.5810   33.7332 H           1 XNC       0.0382
     52 H8         27.4580    4.0128   32.4014 H           1 XNC       0.0451
     53 H9         30.5513    2.3348   37.6197 H           1 XNC       0.0812
     54 H10        29.4242   -1.2695   40.8897 H           1 XNC       0.0503
     55 H11        29.7129   -1.9592   39.2893 H           1 XNC       0.0503
     56 H12        26.1038   -2.7829   39.7298 H           1 XNC       0.0237
     57 H13        27.3832   -2.9406   40.9393 H           1 XNC       0.0237
     58 H14        27.6826   -3.4246   39.2666 H           1 XNC       0.0237
     59 H15        27.1822    0.7691   40.3521 H           1 XNC       0.0237
     60 H16        27.0625   -0.5046   41.5575 H           1 XNC       0.0237
     61 H17        25.8080   -0.3294   40.3254 H           1 XNC       0.0237
     62 H18        26.3082   -1.0071   37.9169 H           1 XNC       0.0444
     63 H19        27.8338   -1.7210   37.4533 H           1 XNC       0.0444
     64 H20        26.2287    0.2935   36.4192 H           1 XNC       0.2009
     65 H21        24.6353    0.8700   33.8322 H           1 XNC       0.2432
     66 H22        25.3907    2.8344   32.8662 H           1 XNC       0.0389
     67 H23        26.4376    5.2501   39.0834 H           1 XNC       0.0510
     68 H24        29.6372    6.8037   36.8497 H           1 XNC       0.0491
     69 H25        30.4644    4.5923   36.4799 H           1 XNC       0.0520
     70 H26        26.0237    8.8524   37.7079 H           1 XNC       0.0776
     71 H27        25.4580    7.2034   37.8580 H           1 XNC       0.0776
     72 H28        27.8063    9.2586   35.7622 H           1 XNC       0.0557
     73 H29        28.0208    9.0568   33.3638 H           1 XNC       0.0599
     74 H30        26.7250    7.3944   32.1551 H           1 XNC       0.0559
     75 H31        25.2049    5.9331   33.3585 H           1 XNC       0.0599
     76 H32        24.9868    6.1133   35.7564 H           1 XNC       0.0557
@<TRIPOS>BOND
     1     1     2   2
     2     2     3   1
     3     2    10  am
     4     3     4  ar
     5     3     9  ar
     6     4     5  ar
     7     5     6  ar
     8     6     7  ar
     9     7     8   1
    10     7     9  ar
    11    10    11   1
    12    10    14   1
    13    11    12  ar
    14    11    26  ar
    15    12    13  ar
    16    13    29  ar
    17    14    15   1
    18    14    30   1
    19    15    16   1
    20    15    24   2
    21    16    17   2
    22    16    18   2
    23    16    19   1
    24    19    20   1
    25    20    21   1
    26    20    22   1
    27    20    23   1
    28    23    24   1
    29    24    25   1
    30    25    26   1
    31    26    27  ar
    32    27    28   1
    33    27    29  ar
    34    30    31  ar
    35    30    36  ar
    36    31    32   1
    37    31    33  ar
    38    33    34  ar
    39    34    35  ar
    40    34    37   1
    41    35    36  ar
    42    37    38   1
    43    38    39   1
    44    39    40  ar
    45    39    44  ar
    46    40    41  ar
    47    41    42  ar
    48    42    43  ar
    49    43    44  ar
    50     4    45   1
    51     5    46   1
    52     6    47   1
    53     8    48   1
    54     8    49   1
    55     8    50   1
    56    12    51   1
    57    13    52   1
    58    14    53   1
    59    19    54   1
    60    19    55   1
    61    21    56   1
    62    21    57   1
    63    21    58   1
    64    22    59   1
    65    22    60   1
    66    22    61   1
    67    23    62   1
    68    23    63   1
    69    25    64   1
    70    28    65   1
    71    29    66   1
    72    33    67   1
    73    35    68   1
    74    36    69   1
    75    38    70   1
    76    38    71   1
    77    40    72   1
    78    41    73   1
    79    42    74   1
    80    43    75   1
    81    44    76   1
@<TRIPOS>SUBSTRUCTURE
     1  XNC      2

