@<TRIPOS>MOLECULE
3gnw_ligand_065
    76    81
SMALL
GAST_HUCK
****
This file was generated by PARSER (from files_GN.cpp)

@<TRIPOS>ATOM
      1 O35        31.4896    8.7537   39.3336 O.2         1 XNC      -0.3687
      2 C16        31.2185    7.5662   39.1813 C.2         1 XNC       0.2510
      3 C17        32.1730    6.8484   38.4518 C.ar        1 XNC       0.1194
      4 C43        33.0036    7.4675   37.4843 C.ar        1 XNC      -0.0209
      5 C42        33.9785    6.7040   36.8080 C.ar        1 XNC      -0.0435
      6 C41        34.1300    5.3401   37.1055 C.ar        1 XNC      -0.0287
      7 C40        33.3036    4.7519   38.0867 C.ar        1 XNC       0.0301
      8 C44        33.4187    3.3243   38.4334 C.3         1 XNC      -0.0144
      9 N39        32.3819    5.5294   38.7197 N.ar        1 XNC      -0.2781
     10 N7         30.0748    7.0848   39.7279 N.am        1 XNC      -0.2078
     11 C4         29.4017    7.8360   40.6829 C.ar        1 XNC       0.0880
     12 C3         30.0952    8.1908   41.8663 C.ar        1 XNC      -0.0607
     13 C2         29.4757    8.9660   42.8621 C.ar        1 XNC      -0.0955
     14 C8         29.4206    5.8468   39.3116 C.3         1 XNC       0.1162
     15 C9         28.4310    6.1593   38.2633 C.2         1 XNC       0.0894
     16 S12        28.6534    5.3721   36.7419 S.o2        1 XNC      -0.0239
     17 O32        28.8840    3.8120   36.9377 O.2         1 XNC      -0.1768
     18 O33        29.9567    5.9679   36.0583 O.2         1 XNC      -0.1768
     19 C13        27.2519    5.6375   35.6429 C.3         1 XNC       0.0705
     20 C14        26.5563    7.0004   35.9403 C.3         1 XNC      -0.0050
     21 C37        27.4175    8.2115   35.4523 C.3         1 XNC      -0.0565
     22 C38        25.1946    7.0303   35.1669 C.3         1 XNC      -0.0565
     23 C15        26.2764    7.1072   37.4820 C.3         1 XNC       0.0036
     24 C10        27.4204    7.0531   38.4158 C.2         1 XNC       0.0422
     25 N11        27.2422    7.8294   39.5032 N.pl3       1 XNC      -0.2908
     26 C5         28.0368    8.1997   40.5412 C.ar        1 XNC       0.1100
     27 C6         27.4263    8.9990   41.5463 C.ar        1 XNC       0.0976
     28 O36        26.1350    9.4136   41.4757 O.3         1 XNC      -0.3423
     29 C1         28.1505    9.3832   42.6888 C.ar        1 XNC      -0.0580
     30 C18        29.0122    4.9578   40.4669 C.ar        1 XNC       0.0130
     31 C23        27.6784    4.5980   40.8249 C.ar        1 XNC       0.1283
     32 F34        26.6307    5.0334   40.1749 F           1 XNC      -0.1917
     33 C22        27.4359    3.7192   41.8985 C.ar        1 XNC      -0.0061
     34 C21        28.5019    3.1958   42.6649 C.ar        1 XNC       0.0849
     35 C20        29.8220    3.5108   42.2983 C.ar        1 XNC      -0.0435
     36 C19        30.0708    4.3767   41.2250 C.ar        1 XNC      -0.0671
     37 O24        28.2862    2.3276   43.7021 O.3         1 XNC      -0.3110
     38 C25        27.4911    2.8739   44.7751 C.3         1 XNC       0.1027
     39 C26        26.9024    1.7557   45.5539 C.ar        1 XNC      -0.0131
     40 C31        26.0662    0.8088   44.9110 C.ar        1 XNC      -0.0578
     41 C30        25.4642   -0.2347   45.6401 C.ar        1 XNC      -0.0685
     42 C29        25.6746   -0.3349   47.0272 C.ar        1 XNC      -0.0687
     43 C28        26.4936    0.6045   47.6804 C.ar        1 XNC      -0.0685
     44 C27        27.1059    1.6403   46.9495 C.ar        1 XNC      -0.0578
     45 H1         32.9102    8.4640   37.2672 H           1 XNC       0.0705
     46 H2         34.5680    7.1452   36.0980 H           1 XNC       0.0729
     47 H3         34.8350    4.7848   36.6106 H           1 XNC       0.0684
     48 H4         32.6927    3.0480   39.1989 H           1 XNC       0.0421
     49 H5         34.4204    3.1087   38.8110 H           1 XNC       0.0421
     50 H6         33.2357    2.7145   37.5472 H           1 XNC       0.0421
     51 H7         31.0588    7.8887   42.0135 H           1 XNC       0.0382
     52 H8         29.9908    9.2194   43.7070 H           1 XNC       0.0451
     53 H9         30.1533    5.1991   38.8350 H           1 XNC       0.0812
     54 H10        26.5531    4.8147   35.8105 H           1 XNC       0.0503
     55 H11        27.5855    5.5832   34.6041 H           1 XNC       0.0503
     56 H12        26.8953    9.1539   35.6354 H           1 XNC       0.0237
     57 H13        27.6196    8.1371   34.3820 H           1 XNC       0.0237
     58 H14        28.3732    8.2552   35.9749 H           1 XNC       0.0237
     59 H15        24.5373    6.2229   35.5007 H           1 XNC       0.0237
     60 H16        25.3495    6.9151   34.0920 H           1 XNC       0.0237
     61 H17        24.6728    7.9753   35.3357 H           1 XNC       0.0237
     62 H18        25.6086    6.2912   37.7698 H           1 XNC       0.0444
     63 H19        25.7137    8.0318   37.6319 H           1 XNC       0.0444
     64 H20        26.3524    8.2064   39.5458 H           1 XNC       0.2009
     65 H21        26.0778   10.0029   40.6907 H           1 XNC       0.2432
     66 H22        27.7054    9.9617   43.4096 H           1 XNC       0.0389
     67 H23        26.4749    3.4568   42.1371 H           1 XNC       0.0510
     68 H24        30.6043    3.0970   42.8064 H           1 XNC       0.0491
     69 H25        31.0490    4.5797   40.9896 H           1 XNC       0.0520
     70 H26        26.6569    3.4810   44.4028 H           1 XNC       0.0776
     71 H27        28.1257    3.5131   45.4006 H           1 XNC       0.0776
     72 H28        25.8904    0.8724   43.9043 H           1 XNC       0.0557
     73 H29        24.8724   -0.9194   45.1640 H           1 XNC       0.0599
     74 H30        25.2344   -1.0892   47.5587 H           1 XNC       0.0559
     75 H31        26.6424    0.5348   48.6892 H           1 XNC       0.0599
     76 H32        27.6877    2.3200   47.4460 H           1 XNC       0.0557
@<TRIPOS>BOND
     1     1     2   2
     2     2     3   1
     3     2    10  am
     4     3     4  ar
     5     3     9  ar
     6     4     5  ar
     7     5     6  ar
     8     6     7  ar
     9     7     8   1
    10     7     9  ar
    11    10    11   1
    12    10    14   1
    13    11    12  ar
    14    11    26  ar
    15    12    13  ar
    16    13    29  ar
    17    14    15   1
    18    14    30   1
    19    15    16   1
    20    15    24   2
    21    16    17   2
    22    16    18   2
    23    16    19   1
    24    19    20   1
    25    20    21   1
    26    20    22   1
    27    20    23   1
    28    23    24   1
    29    24    25   1
    30    25    26   1
    31    26    27  ar
    32    27    28   1
    33    27    29  ar
    34    30    31  ar
    35    30    36  ar
    36    31    32   1
    37    31    33  ar
    38    33    34  ar
    39    34    35  ar
    40    34    37   1
    41    35    36  ar
    42    37    38   1
    43    38    39   1
    44    39    40  ar
    45    39    44  ar
    46    40    41  ar
    47    41    42  ar
    48    42    43  ar
    49    43    44  ar
    50     4    45   1
    51     5    46   1
    52     6    47   1
    53     8    48   1
    54     8    49   1
    55     8    50   1
    56    12    51   1
    57    13    52   1
    58    14    53   1
    59    19    54   1
    60    19    55   1
    61    21    56   1
    62    21    57   1
    63    21    58   1
    64    22    59   1
    65    22    60   1
    66    22    61   1
    67    23    62   1
    68    23    63   1
    69    25    64   1
    70    28    65   1
    71    29    66   1
    72    33    67   1
    73    35    68   1
    74    36    69   1
    75    38    70   1
    76    38    71   1
    77    40    72   1
    78    41    73   1
    79    42    74   1
    80    43    75   1
    81    44    76   1
@<TRIPOS>SUBSTRUCTURE
     1  XNC      2

