@<TRIPOS>MOLECULE
3gnw_ligand_083
    76    81
SMALL
GAST_HUCK
****
This file was generated by PARSER (from files_GN.cpp)

@<TRIPOS>ATOM
      1 O35        26.6225    3.3852   38.0637 O.2         1 XNC      -0.3687
      2 C16        27.1153    2.3064   37.7511 C.2         1 XNC       0.2510
      3 C17        27.3507    2.1783   36.3962 C.ar        1 XNC       0.1194
      4 C43        28.5994    1.7657   35.8774 C.ar        1 XNC      -0.0209
      5 C42        28.7546    1.6415   34.4862 C.ar        1 XNC      -0.0435
      6 C41        27.6691    1.9163   33.6340 C.ar        1 XNC      -0.0287
      7 C40        26.4324    2.3129   34.1808 C.ar        1 XNC       0.0301
      8 C44        25.2418    2.5632   33.3516 C.3         1 XNC      -0.0144
      9 N39        26.3338    2.4349   35.5297 N.ar        1 XNC      -0.2781
     10 N7         27.4363    1.3863   38.6923 N.am        1 XNC      -0.2078
     11 C4         27.7251    0.0595   38.3688 C.ar        1 XNC       0.0880
     12 C3         26.8450   -0.6583   37.5190 C.ar        1 XNC      -0.0607
     13 C2         27.0546   -2.0174   37.2244 C.ar        1 XNC      -0.0955
     14 C8         27.5220    1.7663   40.1047 C.3         1 XNC       0.1162
     15 C9         28.9416    2.1033   40.3290 C.2         1 XNC       0.0894
     16 S12        29.2948    3.7287   40.7817 S.o2        1 XNC      -0.0239
     17 O32        28.4306    4.1612   42.0500 O.2         1 XNC      -0.1768
     18 O33        28.9041    4.7032   39.5867 O.2         1 XNC      -0.1768
     19 C13        31.0465    3.9167   41.1456 C.3         1 XNC       0.0705
     20 C14        31.8926    2.9236   40.2894 C.3         1 XNC      -0.0050
     21 C37        31.8626    3.2989   38.7714 C.3         1 XNC      -0.0565
     22 C38        33.3784    2.9860   40.7780 C.3         1 XNC      -0.0565
     23 C15        31.3417    1.4760   40.5191 C.3         1 XNC       0.0036
     24 C10        29.9440    1.2013   40.1555 C.2         1 XNC       0.0422
     25 N11        29.7544   -0.0649   39.7477 N.pl3       1 XNC      -0.2908
     26 C5         28.8145   -0.6414   38.9562 C.ar        1 XNC       0.1100
     27 C6         28.9833   -2.0282   38.7000 C.ar        1 XNC       0.0976
     28 O36        30.0070   -2.7441   39.2391 O.3         1 XNC      -0.3423
     29 C1         28.1119   -2.7048   37.8274 C.ar        1 XNC      -0.0580
     30 C18        26.8830    0.8524   41.1254 C.ar        1 XNC       0.0130
     31 C23        25.8415   -0.0509   40.7651 C.ar        1 XNC       0.1283
     32 F34        25.4540   -0.1934   39.5141 F           1 XNC      -0.1917
     33 C22        25.1697   -0.8131   41.7396 C.ar        1 XNC      -0.0061
     34 C21        25.4687   -0.6452   43.1043 C.ar        1 XNC       0.0849
     35 C20        26.4719    0.2679   43.4839 C.ar        1 XNC      -0.0435
     36 C19        27.1551    1.0138   42.5129 C.ar        1 XNC      -0.0671
     37 O24        24.8194   -1.3981   44.0463 O.3         1 XNC      -0.3110
     38 C25        23.6983   -0.7498   44.6862 C.3         1 XNC       0.1027
     39 C26        24.1366    0.1187   45.8119 C.ar        1 XNC      -0.0131
     40 C31        23.7554    1.4791   45.8861 C.ar        1 XNC      -0.0578
     41 C30        24.2166    2.2991   46.9328 C.ar        1 XNC      -0.0685
     42 C29        25.0642    1.7666   47.9224 C.ar        1 XNC      -0.0687
     43 C28        25.4332    0.4107   47.8753 C.ar        1 XNC      -0.0685
     44 C27        24.9733   -0.4078   46.8276 C.ar        1 XNC      -0.0578
     45 H1         29.3897    1.5654   36.4953 H           1 XNC       0.0705
     46 H2         29.6567    1.3527   34.0997 H           1 XNC       0.0729
     47 H3         27.7936    1.8225   32.6232 H           1 XNC       0.0684
     48 H4         24.3955    2.8794   33.9635 H           1 XNC       0.0421
     49 H5         24.9617    1.6481   32.8275 H           1 XNC       0.0421
     50 H6         25.4549    3.3457   32.6229 H           1 XNC       0.0421
     51 H7         26.0407   -0.2010   37.0977 H           1 XNC       0.0382
     52 H8         26.4191   -2.5128   36.5971 H           1 XNC       0.0451
     53 H9         26.9277    2.6706   40.2715 H           1 XNC       0.0812
     54 H10        31.1870    3.7072   42.2119 H           1 XNC       0.0503
     55 H11        31.3490    4.9530   40.9667 H           1 XNC       0.0503
     56 H12        32.5034    2.6290   38.1945 H           1 XNC       0.0237
     57 H13        32.2118    4.3230   38.6193 H           1 XNC       0.0237
     58 H14        30.8556    3.2239   38.3571 H           1 XNC       0.0237
     59 H15        33.4564    2.7059   41.8305 H           1 XNC       0.0237
     60 H16        33.7830    3.9936   40.6628 H           1 XNC       0.0237
     61 H17        34.0034    2.3011   40.2014 H           1 XNC       0.0237
     62 H18        31.4407    1.2210   41.5761 H           1 XNC       0.0444
     63 H19        32.0064    0.7917   39.9784 H           1 XNC       0.0444
     64 H20        30.4617   -0.6648   40.0059 H           1 XNC       0.2009
     65 H21        29.5907   -3.3424   39.8955 H           1 XNC       0.2432
     66 H22        28.2566   -3.6970   37.6302 H           1 XNC       0.0389
     67 H23        24.4380   -1.4756   41.4614 H           1 XNC       0.0510
     68 H24        26.6992    0.3939   44.4745 H           1 XNC       0.0491
     69 H25        27.8424    1.6983   42.8336 H           1 XNC       0.0520
     70 H26        23.0639   -1.5408   45.0987 H           1 XNC       0.0776
     71 H27        23.0854   -0.2002   43.9598 H           1 XNC       0.0776
     72 H28        23.1394    1.8841   45.1756 H           1 XNC       0.0557
     73 H29        23.9283    3.2797   46.9814 H           1 XNC       0.0599
     74 H30        25.4003    2.3624   48.6822 H           1 XNC       0.0559
     75 H31        26.0319    0.0187   48.6080 H           1 XNC       0.0599
     76 H32        25.2537   -1.3920   46.8058 H           1 XNC       0.0557
@<TRIPOS>BOND
     1     1     2   2
     2     2     3   1
     3     2    10  am
     4     3     4  ar
     5     3     9  ar
     6     4     5  ar
     7     5     6  ar
     8     6     7  ar
     9     7     8   1
    10     7     9  ar
    11    10    11   1
    12    10    14   1
    13    11    12  ar
    14    11    26  ar
    15    12    13  ar
    16    13    29  ar
    17    14    15   1
    18    14    30   1
    19    15    16   1
    20    15    24   2
    21    16    17   2
    22    16    18   2
    23    16    19   1
    24    19    20   1
    25    20    21   1
    26    20    22   1
    27    20    23   1
    28    23    24   1
    29    24    25   1
    30    25    26   1
    31    26    27  ar
    32    27    28   1
    33    27    29  ar
    34    30    31  ar
    35    30    36  ar
    36    31    32   1
    37    31    33  ar
    38    33    34  ar
    39    34    35  ar
    40    34    37   1
    41    35    36  ar
    42    37    38   1
    43    38    39   1
    44    39    40  ar
    45    39    44  ar
    46    40    41  ar
    47    41    42  ar
    48    42    43  ar
    49    43    44  ar
    50     4    45   1
    51     5    46   1
    52     6    47   1
    53     8    48   1
    54     8    49   1
    55     8    50   1
    56    12    51   1
    57    13    52   1
    58    14    53   1
    59    19    54   1
    60    19    55   1
    61    21    56   1
    62    21    57   1
    63    21    58   1
    64    22    59   1
    65    22    60   1
    66    22    61   1
    67    23    62   1
    68    23    63   1
    69    25    64   1
    70    28    65   1
    71    29    66   1
    72    33    67   1
    73    35    68   1
    74    36    69   1
    75    38    70   1
    76    38    71   1
    77    40    72   1
    78    41    73   1
    79    42    74   1
    80    43    75   1
    81    44    76   1
@<TRIPOS>SUBSTRUCTURE
     1  XNC      2

