@<TRIPOS>MOLECULE
3gnw_ligand_075
    76    81
SMALL
GAST_HUCK
****
This file was generated by PARSER (from files_GN.cpp)

@<TRIPOS>ATOM
      1 O35        36.2127    2.5965   44.8055 O.2         1 XNC      -0.3687
      2 C16        35.6354    3.5293   44.2649 C.2         1 XNC       0.2510
      3 C17        35.1088    4.4423   45.1544 C.ar        1 XNC       0.1194
      4 C43        35.7497    5.6693   45.4288 C.ar        1 XNC      -0.0209
      5 C42        35.1134    6.5936   46.2776 C.ar        1 XNC      -0.0435
      6 C41        33.8531    6.2954   46.8238 C.ar        1 XNC      -0.0287
      7 C40        33.2453    5.0563   46.5254 C.ar        1 XNC       0.0301
      8 C44        31.9096    4.6784   47.0227 C.3         1 XNC      -0.0144
      9 N39        33.8944    4.1878   45.7050 N.ar        1 XNC      -0.2781
     10 N7         35.6100    3.6768   42.9175 N.am        1 XNC      -0.2078
     11 C4         34.9391    4.7298   42.3468 C.ar        1 XNC       0.0880
     12 C3         33.5253    4.7845   42.4164 C.ar        1 XNC      -0.0607
     13 C2         32.8266    5.8556   41.8436 C.ar        1 XNC      -0.0955
     14 C8         36.4279    2.8677   42.0223 C.3         1 XNC       0.1162
     15 C9         37.7621    3.4879   41.8904 C.2         1 XNC       0.0894
     16 S12        39.1031    2.4350   42.1812 S.o2        1 XNC      -0.0239
     17 O32        39.1026    1.2363   41.1373 O.2         1 XNC      -0.1768
     18 O33        38.9839    1.8069   43.6385 O.2         1 XNC      -0.1768
     19 C13        40.6674    3.3246   42.1012 C.3         1 XNC       0.0705
     20 C14        40.4660    4.8353   42.4346 C.3         1 XNC      -0.0050
     21 C37        40.1351    5.0564   43.9492 C.3         1 XNC      -0.0565
     22 C38        41.7997    5.5872   42.1153 C.3         1 XNC      -0.0565
     23 C15        39.3197    5.3889   41.5168 C.3         1 XNC       0.0036
     24 C10        37.9702    4.8170   41.6969 C.2         1 XNC       0.0422
     25 N11        36.9991    5.7366   41.4832 N.pl3       1 XNC      -0.2908
     26 C5         35.6544    5.7469   41.6671 C.ar        1 XNC       0.1100
     27 C6         34.9350    6.8332   41.1127 C.ar        1 XNC       0.0976
     28 O36        35.5786    7.8180   40.4418 O.3         1 XNC      -0.3423
     29 C1         33.5296    6.8841   41.1977 C.ar        1 XNC      -0.0580
     30 C18        35.7487    2.4500   40.7298 C.ar        1 XNC       0.0130
     31 C23        34.9405    1.2799   40.6777 C.ar        1 XNC       0.1283
     32 F34        34.7382    0.5221   41.7219 F           1 XNC      -0.1917
     33 C22        34.3068    0.8838   39.4804 C.ar        1 XNC      -0.0061
     34 C21        34.4419    1.6528   38.3087 C.ar        1 XNC       0.0849
     35 C20        35.1643    2.8550   38.3611 C.ar        1 XNC      -0.0435
     36 C19        35.8287    3.2271   39.5426 C.ar        1 XNC      -0.0671
     37 O24        33.8336    1.2755   37.1396 O.3         1 XNC      -0.3110
     38 C25        34.4081    0.1378   36.4587 C.3         1 XNC       0.1027
     39 C26        35.3991    0.5295   35.4190 C.ar        1 XNC      -0.0131
     40 C31        35.1513    0.2920   34.0460 C.ar        1 XNC      -0.0578
     41 C30        36.1087    0.6232   33.0710 C.ar        1 XNC      -0.0685
     42 C29        37.3257    1.2117   33.4543 C.ar        1 XNC      -0.0687
     43 C28        37.5907    1.4556   34.8130 C.ar        1 XNC      -0.0685
     44 C27        36.6374    1.1069   35.7882 C.ar        1 XNC      -0.0578
     45 H1         36.6600    5.8950   45.0151 H           1 XNC       0.0705
     46 H2         35.5635    7.4869   46.4851 H           1 XNC       0.0729
     47 H3         33.3850    6.9796   47.4203 H           1 XNC       0.0684
     48 H4         31.9587    3.7036   47.5110 H           1 XNC       0.0421
     49 H5         31.2209    4.6153   46.1783 H           1 XNC       0.0421
     50 H6         31.5192    5.4050   47.7381 H           1 XNC       0.0421
     51 H7         33.0043    4.0373   42.8832 H           1 XNC       0.0382
     52 H8         31.8037    5.8876   41.8959 H           1 XNC       0.0451
     53 H9         36.5878    1.9178   42.5373 H           1 XNC       0.0812
     54 H10        41.0491    3.2084   41.0821 H           1 XNC       0.0503
     55 H11        41.3841    2.8578   42.7827 H           1 XNC       0.0503
     56 H12        40.0773    6.1221   44.1790 H           1 XNC       0.0237
     57 H13        40.9082    4.6126   44.5794 H           1 XNC       0.0237
     58 H14        39.1814    4.6059   44.2251 H           1 XNC       0.0237
     59 H15        42.0593    5.4948   41.0590 H           1 XNC       0.0237
     60 H16        42.6231    5.1778   42.7040 H           1 XNC       0.0237
     61 H17        41.7125    6.6500   42.3477 H           1 XNC       0.0237
     62 H18        39.5898    5.2248   40.4687 H           1 XNC       0.0444
     63 H19        39.2922    6.4744   41.6603 H           1 XNC       0.0444
     64 H20        37.3316    6.5494   41.0705 H           1 XNC       0.2009
     65 H21        35.3956    8.6283   40.9664 H           1 XNC       0.2432
     66 H22        33.0174    7.6612   40.7771 H           1 XNC       0.0389
     67 H23        33.7463    0.0246   39.4590 H           1 XNC       0.0510
     68 H24        35.2308    3.4445   37.5292 H           1 XNC       0.0491
     69 H25        36.3711    4.0867   39.5132 H           1 XNC       0.0520
     70 H26        33.5606   -0.3814   36.0051 H           1 XNC       0.0776
     71 H27        34.8786   -0.5792   37.1357 H           1 XNC       0.0776
     72 H28        34.2692   -0.1255   33.7482 H           1 XNC       0.0557
     73 H29        35.9200    0.4421   32.0844 H           1 XNC       0.0599
     74 H30        38.0237    1.4604   32.7442 H           1 XNC       0.0559
     75 H31        38.4798    1.8755   35.0929 H           1 XNC       0.0599
     76 H32        36.8652    1.2619   36.7723 H           1 XNC       0.0557
@<TRIPOS>BOND
     1     1     2   2
     2     2     3   1
     3     2    10  am
     4     3     4  ar
     5     3     9  ar
     6     4     5  ar
     7     5     6  ar
     8     6     7  ar
     9     7     8   1
    10     7     9  ar
    11    10    11   1
    12    10    14   1
    13    11    12  ar
    14    11    26  ar
    15    12    13  ar
    16    13    29  ar
    17    14    15   1
    18    14    30   1
    19    15    16   1
    20    15    24   2
    21    16    17   2
    22    16    18   2
    23    16    19   1
    24    19    20   1
    25    20    21   1
    26    20    22   1
    27    20    23   1
    28    23    24   1
    29    24    25   1
    30    25    26   1
    31    26    27  ar
    32    27    28   1
    33    27    29  ar
    34    30    31  ar
    35    30    36  ar
    36    31    32   1
    37    31    33  ar
    38    33    34  ar
    39    34    35  ar
    40    34    37   1
    41    35    36  ar
    42    37    38   1
    43    38    39   1
    44    39    40  ar
    45    39    44  ar
    46    40    41  ar
    47    41    42  ar
    48    42    43  ar
    49    43    44  ar
    50     4    45   1
    51     5    46   1
    52     6    47   1
    53     8    48   1
    54     8    49   1
    55     8    50   1
    56    12    51   1
    57    13    52   1
    58    14    53   1
    59    19    54   1
    60    19    55   1
    61    21    56   1
    62    21    57   1
    63    21    58   1
    64    22    59   1
    65    22    60   1
    66    22    61   1
    67    23    62   1
    68    23    63   1
    69    25    64   1
    70    28    65   1
    71    29    66   1
    72    33    67   1
    73    35    68   1
    74    36    69   1
    75    38    70   1
    76    38    71   1
    77    40    72   1
    78    41    73   1
    79    42    74   1
    80    43    75   1
    81    44    76   1
@<TRIPOS>SUBSTRUCTURE
     1  XNC      2

