@<TRIPOS>MOLECULE
3gnw_ligand_007
    76    81
SMALL
GAST_HUCK
****
This file was generated by PARSER (from files_GN.cpp)

@<TRIPOS>ATOM
      1 O35        29.4139    4.5475   33.2887 O.2         1 XNC      -0.3687
      2 C16        29.3028    4.0487   34.4042 C.2         1 XNC       0.2510
      3 C17        30.1223    2.9561   34.6037 C.ar        1 XNC       0.1194
      4 C43        31.1722    2.9742   35.5515 C.ar        1 XNC      -0.0209
      5 C42        31.9770    1.8334   35.7046 C.ar        1 XNC      -0.0435
      6 C41        31.7446    0.6967   34.9125 C.ar        1 XNC      -0.0287
      7 C40        30.7055    0.7231   33.9584 C.ar        1 XNC       0.0301
      8 C44        30.4317   -0.4332   33.0889 C.3         1 XNC      -0.0144
      9 N39        29.9453    1.8459   33.8420 N.ar        1 XNC      -0.2781
     10 N7         28.4448    4.5537   35.3226 N.am        1 XNC      -0.2078
     11 C4         27.8501    5.7835   35.1087 C.ar        1 XNC       0.0880
     12 C3         28.6752    6.9268   34.9581 C.ar        1 XNC      -0.0607
     13 C2         28.1202    8.2095   34.8534 C.ar        1 XNC      -0.0955
     14 C8         27.9650    3.7846   36.4766 C.3         1 XNC       0.1162
     15 C9         26.7760    3.0236   36.0517 C.2         1 XNC       0.0894
     16 S12        26.7910    1.3251   36.3781 S.o2        1 XNC      -0.0239
     17 O32        26.9197    1.1211   37.9510 O.2         1 XNC      -0.1768
     18 O33        28.0233    0.5619   35.7260 O.2         1 XNC      -0.1768
     19 C13        25.2659    0.5483   35.8125 C.3         1 XNC       0.0705
     20 C14        24.0814    1.5614   35.8337 C.3         1 XNC      -0.0050
     21 C37        22.8381    0.9085   35.1399 C.3         1 XNC      -0.0565
     22 C38        23.6617    1.9145   37.2965 C.3         1 XNC      -0.0565
     23 C15        24.5095    2.8393   35.0281 C.3         1 XNC       0.0036
     24 C10        25.6852    3.6057   35.4801 C.2         1 XNC       0.0422
     25 N11        25.5502    4.9312   35.2797 N.pl3       1 XNC      -0.2908
     26 C5         26.4392    5.9556   35.1582 C.ar        1 XNC       0.1100
     27 C6         25.8901    7.2562   35.0651 C.ar        1 XNC       0.0976
     28 O36        24.5559    7.4868   35.1912 O.3         1 XNC      -0.3423
     29 C1         26.7290    8.3744   34.9140 C.ar        1 XNC      -0.0580
     30 C18        27.9056    4.5978   37.7555 C.ar        1 XNC       0.0130
     31 C23        26.7429    4.8892   38.5194 C.ar        1 XNC       0.1283
     32 F34        25.5503    4.4946   38.2038 F           1 XNC      -0.1917
     33 C22        26.8196    5.6490   39.7015 C.ar        1 XNC      -0.0061
     34 C21        28.0558    6.1471   40.1507 C.ar        1 XNC       0.0849
     35 C20        29.2190    5.8605   39.4186 C.ar        1 XNC      -0.0435
     36 C19        29.1390    5.1101   38.2358 C.ar        1 XNC      -0.0671
     37 O24        28.1370    6.8807   41.2988 O.3         1 XNC      -0.3110
     38 C25        27.7016    8.2540   41.1878 C.3         1 XNC       0.1027
     39 C26        28.7910    9.1086   41.7155 C.ar        1 XNC      -0.0131
     40 C31        28.6792    9.7851   42.9551 C.ar        1 XNC      -0.0578
     41 C30        29.7638   10.5220   43.4701 C.ar        1 XNC      -0.0685
     42 C29        30.9690   10.5937   42.7485 C.ar        1 XNC      -0.0687
     43 C28        31.0890    9.9438   41.5098 C.ar        1 XNC      -0.0685
     44 C27        30.0038    9.2111   40.9949 C.ar        1 XNC      -0.0578
     45 H1         31.3673    3.8109   36.1075 H           1 XNC       0.0705
     46 H2         32.7390    1.8355   36.3876 H           1 XNC       0.0729
     47 H3         32.3293   -0.1336   35.0281 H           1 XNC       0.0684
     48 H4         29.5755   -0.2496   32.4377 H           1 XNC       0.0421
     49 H5         30.2206   -1.3123   33.7001 H           1 XNC       0.0421
     50 H6         31.3004   -0.6312   32.4613 H           1 XNC       0.0421
     51 H7         29.6919    6.8310   34.9577 H           1 XNC       0.0382
     52 H8         28.7274    9.0286   34.7561 H           1 XNC       0.0451
     53 H9         28.7158    3.0371   36.7375 H           1 XNC       0.0812
     54 H10        25.0539   -0.3279   36.4308 H           1 XNC       0.0503
     55 H11        25.4394    0.2093   34.7875 H           1 XNC       0.0503
     56 H12        21.9841    1.5898   35.1522 H           1 XNC       0.0237
     57 H13        22.5468   -0.0119   35.6547 H           1 XNC       0.0237
     58 H14        23.0541    0.6674   34.0989 H           1 XNC       0.0237
     59 H15        24.5128    2.2054   37.9034 H           1 XNC       0.0237
     60 H16        23.1864    1.0626   37.7904 H           1 XNC       0.0237
     61 H17        22.9600    2.7469   37.2862 H           1 XNC       0.0237
     62 H18        23.6267    3.4884   34.9674 H           1 XNC       0.0444
     63 H19        24.7345    2.5445   33.9998 H           1 XNC       0.0444
     64 H20        24.6272    5.2083   35.1651 H           1 XNC       0.2009
     65 H21        24.1265    6.9171   34.5217 H           1 XNC       0.2432
     66 H22        26.3281    9.3146   34.8666 H           1 XNC       0.0389
     67 H23        25.9717    5.8424   40.2400 H           1 XNC       0.0510
     68 H24        30.1257    6.1908   39.7497 H           1 XNC       0.0491
     69 H25        30.0099    4.9232   37.7301 H           1 XNC       0.0520
     70 H26        26.7887    8.3635   41.7771 H           1 XNC       0.0776
     71 H27        27.4667    8.5839   40.1687 H           1 XNC       0.0776
     72 H28        27.8177    9.7250   43.5039 H           1 XNC       0.0557
     73 H29        29.6825   10.9866   44.3770 H           1 XNC       0.0599
     74 H30        31.7653   11.1008   43.1326 H           1 XNC       0.0559
     75 H31        31.9690    9.9901   40.9889 H           1 XNC       0.0599
     76 H32        30.1127    8.7362   40.0959 H           1 XNC       0.0557
@<TRIPOS>BOND
     1     1     2   2
     2     2     3   1
     3     2    10  am
     4     3     4  ar
     5     3     9  ar
     6     4     5  ar
     7     5     6  ar
     8     6     7  ar
     9     7     8   1
    10     7     9  ar
    11    10    11   1
    12    10    14   1
    13    11    12  ar
    14    11    26  ar
    15    12    13  ar
    16    13    29  ar
    17    14    15   1
    18    14    30   1
    19    15    16   1
    20    15    24   2
    21    16    17   2
    22    16    18   2
    23    16    19   1
    24    19    20   1
    25    20    21   1
    26    20    22   1
    27    20    23   1
    28    23    24   1
    29    24    25   1
    30    25    26   1
    31    26    27  ar
    32    27    28   1
    33    27    29  ar
    34    30    31  ar
    35    30    36  ar
    36    31    32   1
    37    31    33  ar
    38    33    34  ar
    39    34    35  ar
    40    34    37   1
    41    35    36  ar
    42    37    38   1
    43    38    39   1
    44    39    40  ar
    45    39    44  ar
    46    40    41  ar
    47    41    42  ar
    48    42    43  ar
    49    43    44  ar
    50     4    45   1
    51     5    46   1
    52     6    47   1
    53     8    48   1
    54     8    49   1
    55     8    50   1
    56    12    51   1
    57    13    52   1
    58    14    53   1
    59    19    54   1
    60    19    55   1
    61    21    56   1
    62    21    57   1
    63    21    58   1
    64    22    59   1
    65    22    60   1
    66    22    61   1
    67    23    62   1
    68    23    63   1
    69    25    64   1
    70    28    65   1
    71    29    66   1
    72    33    67   1
    73    35    68   1
    74    36    69   1
    75    38    70   1
    76    38    71   1
    77    40    72   1
    78    41    73   1
    79    42    74   1
    80    43    75   1
    81    44    76   1
@<TRIPOS>SUBSTRUCTURE
     1  XNC      2

