@<TRIPOS>MOLECULE
3gnw_ligand_032
    76    81
SMALL
GAST_HUCK
****
This file was generated by PARSER (from files_GN.cpp)

@<TRIPOS>ATOM
      1 O35        30.3835    1.6356   36.9524 O.2         1 XNC      -0.3687
      2 C16        30.0046    2.7885   37.1230 C.2         1 XNC       0.2510
      3 C17        30.2132    3.6060   36.0289 C.ar        1 XNC       0.1194
      4 C43        31.3041    4.4969   35.9318 C.ar        1 XNC      -0.0209
      5 C42        31.3662    5.3751   34.8355 C.ar        1 XNC      -0.0435
      6 C41        30.4119    5.3002   33.8101 C.ar        1 XNC      -0.0287
      7 C40        29.3796    4.3430   33.9009 C.ar        1 XNC       0.0301
      8 C44        28.3759    4.1955   32.8280 C.3         1 XNC      -0.0144
      9 N39        29.3154    3.5533   35.0098 N.ar        1 XNC      -0.2781
     10 N7         29.2351    3.1323   38.1827 N.am        1 XNC      -0.2078
     11 C4         28.8993    4.4523   38.4353 C.ar        1 XNC       0.0880
     12 C3         29.9260    5.3930   38.6948 C.ar        1 XNC      -0.0607
     13 C2         29.6314    6.7458   38.9225 C.ar        1 XNC      -0.0955
     14 C8         28.6325    2.1209   39.0572 C.3         1 XNC       0.1162
     15 C9         27.3107    1.7937   38.4841 C.2         1 XNC       0.0894
     16 S12        27.0724    0.1514   38.0062 S.o2        1 XNC      -0.0239
     17 O32        27.3961   -0.8517   39.1958 O.2         1 XNC      -0.1768
     18 O33        28.0434   -0.1793   36.7931 O.2         1 XNC      -0.1768
     19 C13        25.3829   -0.1164   37.4464 C.3         1 XNC       0.0705
     20 C14        24.7806    1.1838   36.8328 C.3         1 XNC      -0.0050
     21 C37        25.4219    1.5392   35.4505 C.3         1 XNC      -0.0565
     22 C38        23.2516    0.9441   36.6016 C.3         1 XNC      -0.0565
     23 C15        24.9713    2.3505   37.8605 C.3         1 XNC       0.0036
     24 C10        26.3513    2.7178   38.2335 C.2         1 XNC       0.0422
     25 N11        26.4800    4.0383   38.4368 N.pl3       1 XNC      -0.2908
     26 C5         27.5472    4.8679   38.5550 C.ar        1 XNC       0.1100
     27 C6         27.2578    6.2381   38.7858 C.ar        1 XNC       0.0976
     28 O36        25.9719    6.6774   38.8415 O.3         1 XNC      -0.3423
     29 C1         28.2976    7.1705   38.9590 C.ar        1 XNC      -0.0580
     30 C18        28.7093    2.4359   40.5387 C.ar        1 XNC       0.0130
     31 C23        27.6832    2.2072   41.4913 C.ar        1 XNC       0.1283
     32 F34        26.5388    1.6662   41.1867 F           1 XNC      -0.1917
     33 C22        27.8916    2.5256   42.8626 C.ar        1 XNC      -0.0061
     34 C21        29.1090    3.0729   43.3075 C.ar        1 XNC       0.0849
     35 C20        30.1380    3.2660   42.3702 C.ar        1 XNC      -0.0435
     36 C19        29.9490    2.9260   41.0255 C.ar        1 XNC      -0.0671
     37 O24        29.4392    3.4211   44.6001 O.3         1 XNC      -0.3110
     38 C25        28.5195    3.3668   45.7029 C.3         1 XNC       0.1027
     39 C26        28.3776    2.0030   46.2739 C.ar        1 XNC      -0.0131
     40 C31        27.1189    1.5189   46.6954 C.ar        1 XNC      -0.0578
     41 C30        27.0057    0.2539   47.3047 C.ar        1 XNC      -0.0685
     42 C29        28.1528   -0.5458   47.4847 C.ar        1 XNC      -0.0687
     43 C28        29.4081   -0.0761   47.0710 C.ar        1 XNC      -0.0685
     44 C27        29.5209    1.1960   46.4745 C.ar        1 XNC      -0.0578
     45 H1         32.0257    4.5310   36.6566 H           1 XNC       0.0705
     46 H2         32.1125    6.0684   34.7836 H           1 XNC       0.0729
     47 H3         30.4667    5.9370   33.0095 H           1 XNC       0.0684
     48 H4         27.6382    3.4324   33.0820 H           1 XNC       0.0421
     49 H5         28.8679    3.9054   31.8987 H           1 XNC       0.0421
     50 H6         27.8588    5.1430   32.6757 H           1 XNC       0.0421
     51 H7         30.9044    5.0932   38.7272 H           1 XNC       0.0382
     52 H8         30.3871    7.4217   39.0657 H           1 XNC       0.0451
     53 H9         29.2550    1.2189   39.0202 H           1 XNC       0.0812
     54 H10        24.7998   -0.4229   38.3184 H           1 XNC       0.0503
     55 H11        25.3696   -0.9364   36.7268 H           1 XNC       0.0503
     56 H12        24.9400    2.4201   35.0191 H           1 XNC       0.0237
     57 H13        25.3072    0.7097   34.7487 H           1 XNC       0.0237
     58 H14        26.4863    1.7587   35.5453 H           1 XNC       0.0237
     59 H15        22.7460    0.7211   37.5442 H           1 XNC       0.0237
     60 H16        23.0890    0.1054   35.9207 H           1 XNC       0.0237
     61 H17        22.7865    1.8318   36.1669 H           1 XNC       0.0237
     62 H18        24.4656    2.0863   38.7921 H           1 XNC       0.0444
     63 H19        24.4340    3.2196   37.4602 H           1 XNC       0.0444
     64 H20        25.6309    4.5018   38.4759 H           1 XNC       0.2009
     65 H21        25.9113    7.3970   38.1839 H           1 XNC       0.2432
     66 H22        28.0788    8.1546   39.1263 H           1 XNC       0.0389
     67 H23        27.1391    2.3293   43.5253 H           1 XNC       0.0510
     68 H24        31.0424    3.6385   42.6678 H           1 XNC       0.0491
     69 H25        30.7440    3.0534   40.3912 H           1 XNC       0.0520
     70 H26        27.5608    3.8050   45.4223 H           1 XNC       0.0776
     71 H27        28.9397    3.9975   46.4859 H           1 XNC       0.0776
     72 H28        26.2788    2.0943   46.5938 H           1 XNC       0.0557
     73 H29        26.0955   -0.0803   47.6287 H           1 XNC       0.0599
     74 H30        28.0709   -1.4602   47.9361 H           1 XNC       0.0559
     75 H31        30.2445   -0.6476   47.2137 H           1 XNC       0.0599
     76 H32        30.4480    1.5284   46.2045 H           1 XNC       0.0557
@<TRIPOS>BOND
     1     1     2   2
     2     2     3   1
     3     2    10  am
     4     3     4  ar
     5     3     9  ar
     6     4     5  ar
     7     5     6  ar
     8     6     7  ar
     9     7     8   1
    10     7     9  ar
    11    10    11   1
    12    10    14   1
    13    11    12  ar
    14    11    26  ar
    15    12    13  ar
    16    13    29  ar
    17    14    15   1
    18    14    30   1
    19    15    16   1
    20    15    24   2
    21    16    17   2
    22    16    18   2
    23    16    19   1
    24    19    20   1
    25    20    21   1
    26    20    22   1
    27    20    23   1
    28    23    24   1
    29    24    25   1
    30    25    26   1
    31    26    27  ar
    32    27    28   1
    33    27    29  ar
    34    30    31  ar
    35    30    36  ar
    36    31    32   1
    37    31    33  ar
    38    33    34  ar
    39    34    35  ar
    40    34    37   1
    41    35    36  ar
    42    37    38   1
    43    38    39   1
    44    39    40  ar
    45    39    44  ar
    46    40    41  ar
    47    41    42  ar
    48    42    43  ar
    49    43    44  ar
    50     4    45   1
    51     5    46   1
    52     6    47   1
    53     8    48   1
    54     8    49   1
    55     8    50   1
    56    12    51   1
    57    13    52   1
    58    14    53   1
    59    19    54   1
    60    19    55   1
    61    21    56   1
    62    21    57   1
    63    21    58   1
    64    22    59   1
    65    22    60   1
    66    22    61   1
    67    23    62   1
    68    23    63   1
    69    25    64   1
    70    28    65   1
    71    29    66   1
    72    33    67   1
    73    35    68   1
    74    36    69   1
    75    38    70   1
    76    38    71   1
    77    40    72   1
    78    41    73   1
    79    42    74   1
    80    43    75   1
    81    44    76   1
@<TRIPOS>SUBSTRUCTURE
     1  XNC      2

