@<TRIPOS>MOLECULE
3gnw_ligand_091
    76    81
SMALL
GAST_HUCK
****
This file was generated by PARSER (from files_GN.cpp)

@<TRIPOS>ATOM
      1 O35        25.4105    2.7643   38.0958 O.2         1 XNC      -0.3687
      2 C16        26.5873    2.6778   38.4339 C.2         1 XNC       0.2510
      3 C17        26.7784    2.0340   39.6523 C.ar        1 XNC       0.1194
      4 C43        26.1936    2.4970   40.8549 C.ar        1 XNC      -0.0209
      5 C42        26.4081    1.7840   42.0469 C.ar        1 XNC      -0.0435
      6 C41        27.1538    0.5929   42.0351 C.ar        1 XNC      -0.0287
      7 C40        27.6816    0.1272   40.8117 C.ar        1 XNC       0.0301
      8 C44        28.4300   -1.1423   40.7478 C.3         1 XNC      -0.0144
      9 N39        27.4780    0.8665   39.6878 N.ar        1 XNC      -0.2781
     10 N7         27.5569    3.1639   37.6206 N.am        1 XNC      -0.2078
     11 C4         27.2678    3.4876   36.2987 C.ar        1 XNC       0.0880
     12 C3         26.7052    2.4888   35.4639 C.ar        1 XNC      -0.0607
     13 C2         26.5032    2.7086   34.0922 C.ar        1 XNC      -0.0955
     14 C8         28.8959    3.5262   38.1180 C.3         1 XNC       0.1162
     15 C9         28.8017    4.9330   38.5507 C.2         1 XNC       0.0894
     16 S12        29.1023    5.2663   40.2194 S.o2        1 XNC      -0.0239
     17 O32        30.4837    4.6491   40.7084 O.2         1 XNC      -0.1768
     18 O33        27.9528    4.6265   41.1134 O.2         1 XNC      -0.1768
     19 C13        29.0941    7.0436   40.5277 C.3         1 XNC       0.0705
     20 C14        28.2130    7.7889   39.4783 C.3         1 XNC      -0.0050
     21 C37        26.6884    7.4892   39.6815 C.3         1 XNC      -0.0565
     22 C38        28.4299    9.3281   39.6480 C.3         1 XNC      -0.0565
     23 C15        28.6893    7.3610   38.0488 C.3         1 XNC       0.0036
     24 C10        28.5136    5.9424   37.6916 C.2         1 XNC       0.0422
     25 N11        28.1985    5.7672   36.3960 N.pl3       1 XNC      -0.2908
     26 C5         27.6430    4.7318   35.7147 C.ar        1 XNC       0.1100
     27 C6         27.4247    4.9501   34.3314 C.ar        1 XNC       0.0976
     28 O36        27.7573    6.1191   33.7287 O.3         1 XNC      -0.3423
     29 C1         26.8588    3.9414   33.5275 C.ar        1 XNC      -0.0580
     30 C18        30.0595    3.1766   37.2229 C.ar        1 XNC       0.0130
     31 C23        31.2860    3.9040   37.2067 C.ar        1 XNC       0.1283
     32 F34        31.5126    4.9545   37.9453 F           1 XNC      -0.1917
     33 C22        32.3490    3.5059   36.3750 C.ar        1 XNC      -0.0061
     34 C21        32.2488    2.3488   35.5652 C.ar        1 XNC       0.0849
     35 C20        31.0428    1.6246   35.5803 C.ar        1 XNC      -0.0435
     36 C19        29.9842    2.0065   36.4182 C.ar        1 XNC      -0.0671
     37 O24        33.2711    1.8787   34.7737 O.3         1 XNC      -0.3110
     38 C25        34.6169    1.8063   35.3192 C.3         1 XNC       0.1027
     39 C26        34.8186    1.1894   36.6596 C.ar        1 XNC      -0.0131
     40 C31        33.8105    0.4550   37.3297 C.ar        1 XNC      -0.0578
     41 C30        34.0106   -0.0139   38.6444 C.ar        1 XNC      -0.0685
     42 C29        35.2338    0.2161   39.2961 C.ar        1 XNC      -0.0687
     43 C28        36.2701    0.8915   38.6175 C.ar        1 XNC      -0.0685
     44 C27        36.0643    1.3688   37.3104 C.ar        1 XNC      -0.0578
     45 H1         25.6309    3.3517   40.8736 H           1 XNC       0.0705
     46 H2         26.0180    2.1310   42.9279 H           1 XNC       0.0729
     47 H3         27.2980    0.0706   42.9017 H           1 XNC       0.0684
     48 H4         28.7593   -1.3544   39.7279 H           1 XNC       0.0421
     49 H5         27.7970   -1.9659   41.0863 H           1 XNC       0.0421
     50 H6         29.3071   -1.0800   41.3930 H           1 XNC       0.0421
     51 H7         26.4742    1.5673   35.8460 H           1 XNC       0.0382
     52 H8         26.1173    1.9680   33.5045 H           1 XNC       0.0451
     53 H9         29.1325    2.9164   38.9897 H           1 XNC       0.0812
     54 H10        30.1303    7.3870   40.4587 H           1 XNC       0.0503
     55 H11        28.7456    7.2335   41.5465 H           1 XNC       0.0503
     56 H12        26.0913    8.0363   38.9496 H           1 XNC       0.0237
     57 H13        26.3649    7.7877   40.6808 H           1 XNC       0.0237
     58 H14        26.4643    6.4285   39.5624 H           1 XNC       0.0237
     59 H15        29.4774    9.5963   39.4897 H           1 XNC       0.0237
     60 H16        28.1450    9.6490   40.6520 H           1 XNC       0.0237
     61 H17        27.8281    9.8861   38.9270 H           1 XNC       0.0237
     62 H18        29.7559    7.5863   37.9441 H           1 XNC       0.0444
     63 H19        28.1711    8.0005   37.3249 H           1 XNC       0.0444
     64 H20        28.3414    6.5578   35.8516 H           1 XNC       0.2009
     65 H21        28.7022    6.0184   33.4819 H           1 XNC       0.2432
     66 H22        26.7182    4.1004   32.5282 H           1 XNC       0.0389
     67 H23        33.2123    4.0480   36.3746 H           1 XNC       0.0510
     68 H24        30.9386    0.7943   34.9879 H           1 XNC       0.0491
     69 H25        29.1537    1.4149   36.4436 H           1 XNC       0.0520
     70 H26        35.0061    2.8254   35.3375 H           1 XNC       0.0776
     71 H27        35.2258    1.2566   34.5936 H           1 XNC       0.0776
     72 H28        32.9194    0.2599   36.8796 H           1 XNC       0.0557
     73 H29        33.2685   -0.5184   39.1306 H           1 XNC       0.0599
     74 H30        35.3765   -0.1172   40.2553 H           1 XNC       0.0559
     75 H31        37.1635    1.0508   39.0882 H           1 XNC       0.0599
     76 H32        36.8260    1.8750   36.8448 H           1 XNC       0.0557
@<TRIPOS>BOND
     1     1     2   2
     2     2     3   1
     3     2    10  am
     4     3     4  ar
     5     3     9  ar
     6     4     5  ar
     7     5     6  ar
     8     6     7  ar
     9     7     8   1
    10     7     9  ar
    11    10    11   1
    12    10    14   1
    13    11    12  ar
    14    11    26  ar
    15    12    13  ar
    16    13    29  ar
    17    14    15   1
    18    14    30   1
    19    15    16   1
    20    15    24   2
    21    16    17   2
    22    16    18   2
    23    16    19   1
    24    19    20   1
    25    20    21   1
    26    20    22   1
    27    20    23   1
    28    23    24   1
    29    24    25   1
    30    25    26   1
    31    26    27  ar
    32    27    28   1
    33    27    29  ar
    34    30    31  ar
    35    30    36  ar
    36    31    32   1
    37    31    33  ar
    38    33    34  ar
    39    34    35  ar
    40    34    37   1
    41    35    36  ar
    42    37    38   1
    43    38    39   1
    44    39    40  ar
    45    39    44  ar
    46    40    41  ar
    47    41    42  ar
    48    42    43  ar
    49    43    44  ar
    50     4    45   1
    51     5    46   1
    52     6    47   1
    53     8    48   1
    54     8    49   1
    55     8    50   1
    56    12    51   1
    57    13    52   1
    58    14    53   1
    59    19    54   1
    60    19    55   1
    61    21    56   1
    62    21    57   1
    63    21    58   1
    64    22    59   1
    65    22    60   1
    66    22    61   1
    67    23    62   1
    68    23    63   1
    69    25    64   1
    70    28    65   1
    71    29    66   1
    72    33    67   1
    73    35    68   1
    74    36    69   1
    75    38    70   1
    76    38    71   1
    77    40    72   1
    78    41    73   1
    79    42    74   1
    80    43    75   1
    81    44    76   1
@<TRIPOS>SUBSTRUCTURE
     1  XNC      2

