@<TRIPOS>MOLECULE
3gnw_ligand_016
    76    81
SMALL
GAST_HUCK
****
This file was generated by PARSER (from files_GN.cpp)

@<TRIPOS>ATOM
      1 O35        30.6531    1.5094   41.0267 O.2         1 XNC      -0.3687
      2 C16        30.7205    1.4962   39.8049 C.2         1 XNC       0.2510
      3 C17        32.0072    1.2328   39.2888 C.ar        1 XNC       0.1194
      4 C43        33.1959    1.4250   40.0443 C.ar        1 XNC      -0.0209
      5 C42        34.4488    1.1015   39.4930 C.ar        1 XNC      -0.0435
      6 C41        34.5331    0.5903   38.1884 C.ar        1 XNC      -0.0287
      7 C40        33.3486    0.4080   37.4472 C.ar        1 XNC       0.0301
      8 C44        33.3815   -0.1059   36.0648 C.3         1 XNC      -0.0144
      9 N39        32.1623    0.7206   38.0354 N.ar        1 XNC      -0.2781
     10 N7         29.5684    1.6412   39.0958 N.am        1 XNC      -0.2078
     11 C4         29.5753    1.8574   37.7316 C.ar        1 XNC       0.0880
     12 C3         30.2653    2.9753   37.2039 C.ar        1 XNC      -0.0607
     13 C2         30.2712    3.2328   35.8245 C.ar        1 XNC      -0.0955
     14 C8         28.2445    1.4933   39.7151 C.3         1 XNC       0.1162
     15 C9         27.9136    0.0559   39.6304 C.2         1 XNC       0.0894
     16 S12        27.6661   -0.7736   41.1229 S.o2        1 XNC      -0.0239
     17 O32        26.5715   -0.0175   41.9929 O.2         1 XNC      -0.1768
     18 O33        28.9958   -0.8111   41.9946 O.2         1 XNC      -0.1768
     19 C13        27.1016   -2.4610   40.8384 C.3         1 XNC       0.0705
     20 C14        27.6234   -3.0193   39.4782 C.3         1 XNC      -0.0050
     21 C37        29.1527   -3.3406   39.5315 C.3         1 XNC      -0.0565
     22 C38        26.8621   -4.3525   39.1737 C.3         1 XNC      -0.0565
     23 C15        27.3121   -1.9808   38.3438 C.3         1 XNC       0.0036
     24 C10        27.8783   -0.6239   38.4597 C.2         1 XNC       0.0422
     25 N11        28.1096   -0.0606   37.2540 N.pl3       1 XNC      -0.2908
     26 C5         28.8235    1.0243   36.8563 C.ar        1 XNC       0.1100
     27 C6         28.8243    1.3075   35.4687 C.ar        1 XNC       0.0976
     28 O36        28.1205    0.5320   34.6027 O.3         1 XNC      -0.3423
     29 C1         29.5518    2.3970   34.9552 C.ar        1 XNC      -0.0580
     30 C18        27.2098    2.4958   39.2366 C.ar        1 XNC       0.0130
     31 C23        25.9488    2.1723   38.6607 C.ar        1 XNC       0.1283
     32 F34        25.5135    0.9472   38.5468 F           1 XNC      -0.1917
     33 C22        25.0867    3.1829   38.1928 C.ar        1 XNC      -0.0061
     34 C21        25.4467    4.5420   38.2813 C.ar        1 XNC       0.0849
     35 C20        26.6599    4.8805   38.9055 C.ar        1 XNC      -0.0435
     36 C19        27.5264    3.8738   39.3717 C.ar        1 XNC      -0.0671
     37 O24        24.5860    5.5388   37.8900 O.3         1 XNC      -0.3110
     38 C25        24.2314    5.5971   36.4876 C.3         1 XNC       0.1027
     39 C26        25.1800    6.3592   35.6366 C.ar        1 XNC      -0.0131
     40 C31        25.3193    6.0345   34.2660 C.ar        1 XNC      -0.0578
     41 C30        26.1456    6.8009   33.4258 C.ar        1 XNC      -0.0685
     42 C29        26.8465    7.9032   33.9446 C.ar        1 XNC      -0.0687
     43 C28        26.7088    8.2477   35.3015 C.ar        1 XNC      -0.0685
     44 C27        25.8742    7.4847   36.1408 C.ar        1 XNC      -0.0578
     45 H1         33.1628    1.7990   40.9965 H           1 XNC       0.0705
     46 H2         35.2997    1.2366   40.0430 H           1 XNC       0.0729
     47 H3         35.4456    0.3550   37.7880 H           1 XNC       0.0684
     48 H4         32.3809   -0.1448   35.6315 H           1 XNC       0.0421
     49 H5         33.8039   -1.1114   36.0543 H           1 XNC       0.0421
     50 H6         33.9997    0.5473   35.4459 H           1 XNC       0.0421
     51 H7         30.7769    3.6045   37.8272 H           1 XNC       0.0382
     52 H8         30.7908    4.0314   35.4563 H           1 XNC       0.0451
     53 H9         28.3166    1.7493   40.7750 H           1 XNC       0.0812
     54 H10        26.0090   -2.4317   40.8365 H           1 XNC       0.0503
     55 H11        27.4167   -3.0911   41.6742 H           1 XNC       0.0503
     56 H12        29.4997   -3.7278   38.5709 H           1 XNC       0.0237
     57 H13        29.3588   -4.0947   40.2955 H           1 XNC       0.0237
     58 H14        29.7402   -2.4513   39.7646 H           1 XNC       0.0237
     59 H15        25.7873   -4.1792   39.0865 H           1 XNC       0.0237
     60 H16        27.0223   -5.0811   39.9720 H           1 XNC       0.0237
     61 H17        27.2078   -4.7935   38.2364 H           1 XNC       0.0237
     62 H18        26.2270   -1.8542   38.2732 H           1 XNC       0.0444
     63 H19        27.6337   -2.4346   37.3993 H           1 XNC       0.0444
     64 H20        27.6992   -0.5440   36.5204 H           1 XNC       0.2009
     65 H21        27.5550    1.1577   34.1023 H           1 XNC       0.2432
     66 H22        29.5619    2.5859   33.9490 H           1 XNC       0.0389
     67 H23        24.1829    2.9287   37.7882 H           1 XNC       0.0510
     68 H24        26.9070    5.8641   39.0380 H           1 XNC       0.0491
     69 H25        28.3985    4.1604   39.8241 H           1 XNC       0.0520
     70 H26        23.2733    6.1116   36.4305 H           1 XNC       0.0776
     71 H27        24.0599    4.6005   36.0725 H           1 XNC       0.0776
     72 H28        24.7988    5.2517   33.8608 H           1 XNC       0.0557
     73 H29        26.2235    6.5650   32.4339 H           1 XNC       0.0599
     74 H30        27.4449    8.4595   33.3302 H           1 XNC       0.0559
     75 H31        27.2070    9.0602   35.6745 H           1 XNC       0.0599
     76 H32        25.7679    7.7609   37.1205 H           1 XNC       0.0557
@<TRIPOS>BOND
     1     1     2   2
     2     2     3   1
     3     2    10  am
     4     3     4  ar
     5     3     9  ar
     6     4     5  ar
     7     5     6  ar
     8     6     7  ar
     9     7     8   1
    10     7     9  ar
    11    10    11   1
    12    10    14   1
    13    11    12  ar
    14    11    26  ar
    15    12    13  ar
    16    13    29  ar
    17    14    15   1
    18    14    30   1
    19    15    16   1
    20    15    24   2
    21    16    17   2
    22    16    18   2
    23    16    19   1
    24    19    20   1
    25    20    21   1
    26    20    22   1
    27    20    23   1
    28    23    24   1
    29    24    25   1
    30    25    26   1
    31    26    27  ar
    32    27    28   1
    33    27    29  ar
    34    30    31  ar
    35    30    36  ar
    36    31    32   1
    37    31    33  ar
    38    33    34  ar
    39    34    35  ar
    40    34    37   1
    41    35    36  ar
    42    37    38   1
    43    38    39   1
    44    39    40  ar
    45    39    44  ar
    46    40    41  ar
    47    41    42  ar
    48    42    43  ar
    49    43    44  ar
    50     4    45   1
    51     5    46   1
    52     6    47   1
    53     8    48   1
    54     8    49   1
    55     8    50   1
    56    12    51   1
    57    13    52   1
    58    14    53   1
    59    19    54   1
    60    19    55   1
    61    21    56   1
    62    21    57   1
    63    21    58   1
    64    22    59   1
    65    22    60   1
    66    22    61   1
    67    23    62   1
    68    23    63   1
    69    25    64   1
    70    28    65   1
    71    29    66   1
    72    33    67   1
    73    35    68   1
    74    36    69   1
    75    38    70   1
    76    38    71   1
    77    40    72   1
    78    41    73   1
    79    42    74   1
    80    43    75   1
    81    44    76   1
@<TRIPOS>SUBSTRUCTURE
     1  XNC      2

