@<TRIPOS>MOLECULE
3gnw_ligand_005
    76    81
SMALL
GAST_HUCK
****
This file was generated by PARSER (from files_GN.cpp)

@<TRIPOS>ATOM
      1 O35        28.2713    4.8783   37.9275 O.2         1 XNC      -0.3687
      2 C16        28.3025    3.6585   37.8107 C.2         1 XNC       0.2510
      3 C17        28.3256    3.2313   36.4863 C.ar        1 XNC       0.1194
      4 C43        29.3060    2.3319   36.0076 C.ar        1 XNC      -0.0209
      5 C42        29.2857    1.9444   34.6567 C.ar        1 XNC      -0.0435
      6 C41        28.2904    2.4418   33.7978 C.ar        1 XNC      -0.0287
      7 C40        27.3287    3.3423   34.3038 C.ar        1 XNC       0.0301
      8 C44        26.2590    3.8887   33.4462 C.3         1 XNC      -0.0144
      9 N39        27.3927    3.7029   35.6145 N.ar        1 XNC      -0.2781
     10 N7         28.3738    2.8456   38.8964 N.am        1 XNC      -0.2078
     11 C4         28.1517    1.4917   38.7661 C.ar        1 XNC       0.0880
     12 C3         26.9070    1.0417   38.2687 C.ar        1 XNC      -0.0607
     13 C2         26.6645   -0.3249   38.0564 C.ar        1 XNC      -0.0955
     14 C8         28.7370    3.3275   40.2284 C.3         1 XNC       0.1162
     15 C9         30.1932    3.1604   40.4286 C.2         1 XNC       0.0894
     16 S12        31.0450    4.5711   40.9647 S.o2        1 XNC      -0.0239
     17 O32        30.4112    5.1390   42.3075 O.2         1 XNC      -0.1768
     18 O33        30.8738    5.7026   39.8610 O.2         1 XNC      -0.1768
     19 C13        32.8087    4.2522   41.1383 C.3         1 XNC       0.0705
     20 C14        33.2588    3.1017   40.1865 C.3         1 XNC      -0.0050
     21 C37        33.2272    3.5353   38.6816 C.3         1 XNC      -0.0565
     22 C38        34.7338    2.7159   40.5433 C.3         1 XNC      -0.0565
     23 C15        32.3214    1.8677   40.4326 C.3         1 XNC       0.0036
     24 C10        30.8827    2.0314   40.1286 C.2         1 XNC       0.0422
     25 N11        30.3424    0.8738   39.6771 N.pl3       1 XNC      -0.2908
     26 C5         29.1528    0.5441   39.1222 C.ar        1 XNC       0.1100
     27 C6         28.8923   -0.8382   38.8939 C.ar        1 XNC       0.0976
     28 O36        29.7871   -1.8218   39.1893 O.3         1 XNC      -0.3423
     29 C1         27.6697   -1.2592   38.3506 C.ar        1 XNC      -0.0580
     30 C18        27.8527    2.8769   41.3775 C.ar        1 XNC       0.0130
     31 C23        26.7286    3.6510   41.7974 C.ar        1 XNC       0.1283
     32 F34        26.4112    4.7768   41.2126 F           1 XNC      -0.1917
     33 C22        25.8990    3.2338   42.8528 C.ar        1 XNC      -0.0061
     34 C21        26.1454    2.0165   43.5080 C.ar        1 XNC       0.0849
     35 C20        27.2276    1.2205   43.1001 C.ar        1 XNC      -0.0435
     36 C19        28.0760    1.6589   42.0679 C.ar        1 XNC      -0.0671
     37 O24        25.3082    1.6105   44.5083 O.3         1 XNC      -0.3110
     38 C25        25.7380    1.9767   45.8420 C.3         1 XNC       0.1027
     39 C26        26.2388    0.7977   46.5945 C.ar        1 XNC      -0.0131
     40 C31        25.3335   -0.0905   47.2218 C.ar        1 XNC      -0.0578
     41 C30        25.8015   -1.1749   47.9875 C.ar        1 XNC      -0.0685
     42 C29        27.1853   -1.3942   48.1241 C.ar        1 XNC      -0.0687
     43 C28        28.0965   -0.5344   47.4861 C.ar        1 XNC      -0.0685
     44 C27        27.6277    0.5547   46.7276 C.ar        1 XNC      -0.0578
     45 H1         30.0419    1.9727   36.6205 H           1 XNC       0.0705
     46 H2         29.9975    1.3032   34.2975 H           1 XNC       0.0729
     47 H3         28.2756    2.1564   32.8163 H           1 XNC       0.0684
     48 H4         25.6222    4.5798   34.0029 H           1 XNC       0.0421
     49 H5         25.6375    3.0738   33.0671 H           1 XNC       0.0421
     50 H6         26.6992    4.4245   32.6028 H           1 XNC       0.0421
     51 H7         26.1629    1.7135   38.0537 H           1 XNC       0.0382
     52 H8         25.7615   -0.6378   37.6951 H           1 XNC       0.0451
     53 H9         28.5788    4.4105   40.2149 H           1 XNC       0.0812
     54 H10        32.9856    3.9717   42.1824 H           1 XNC       0.0503
     55 H11        33.3662    5.1731   40.9402 H           1 XNC       0.0503
     56 H12        33.5807    2.7242   38.0403 H           1 XNC       0.0237
     57 H13        33.8675    4.4046   38.5158 H           1 XNC       0.0237
     58 H14        32.2190    3.7948   38.3563 H           1 XNC       0.0237
     59 H15        34.8089    2.3791   41.5798 H           1 XNC       0.0237
     60 H16        35.3992    3.5748   40.4144 H           1 XNC       0.0237
     61 H17        35.0908    1.9096   39.8989 H           1 XNC       0.0237
     62 H18        32.3899    1.5741   41.4866 H           1 XNC       0.0444
     63 H19        32.7423    1.0340   39.8574 H           1 XNC       0.0444
     64 H20        30.9180    0.1094   39.8260 H           1 XNC       0.2009
     65 H21        30.1848   -1.5807   40.0486 H           1 XNC       0.2432
     66 H22        27.4852   -2.2535   38.1993 H           1 XNC       0.0389
     67 H23        25.1005    3.8026   43.1378 H           1 XNC       0.0510
     68 H24        27.3937    0.3177   43.5576 H           1 XNC       0.0491
     69 H25        28.8673    1.0630   41.8370 H           1 XNC       0.0520
     70 H26        24.8563    2.3792   46.3602 H           1 XNC       0.0776
     71 H27        26.4819    2.7826   45.8595 H           1 XNC       0.0776
     72 H28        24.3222    0.0608   47.1430 H           1 XNC       0.0557
     73 H29        25.1376   -1.7968   48.4529 H           1 XNC       0.0599
     74 H30        27.5253   -2.1799   48.6803 H           1 XNC       0.0559
     75 H31        29.1030   -0.6943   47.5853 H           1 XNC       0.0599
     76 H32        28.3064    1.1756   46.2783 H           1 XNC       0.0557
@<TRIPOS>BOND
     1     1     2   2
     2     2     3   1
     3     2    10  am
     4     3     4  ar
     5     3     9  ar
     6     4     5  ar
     7     5     6  ar
     8     6     7  ar
     9     7     8   1
    10     7     9  ar
    11    10    11   1
    12    10    14   1
    13    11    12  ar
    14    11    26  ar
    15    12    13  ar
    16    13    29  ar
    17    14    15   1
    18    14    30   1
    19    15    16   1
    20    15    24   2
    21    16    17   2
    22    16    18   2
    23    16    19   1
    24    19    20   1
    25    20    21   1
    26    20    22   1
    27    20    23   1
    28    23    24   1
    29    24    25   1
    30    25    26   1
    31    26    27  ar
    32    27    28   1
    33    27    29  ar
    34    30    31  ar
    35    30    36  ar
    36    31    32   1
    37    31    33  ar
    38    33    34  ar
    39    34    35  ar
    40    34    37   1
    41    35    36  ar
    42    37    38   1
    43    38    39   1
    44    39    40  ar
    45    39    44  ar
    46    40    41  ar
    47    41    42  ar
    48    42    43  ar
    49    43    44  ar
    50     4    45   1
    51     5    46   1
    52     6    47   1
    53     8    48   1
    54     8    49   1
    55     8    50   1
    56    12    51   1
    57    13    52   1
    58    14    53   1
    59    19    54   1
    60    19    55   1
    61    21    56   1
    62    21    57   1
    63    21    58   1
    64    22    59   1
    65    22    60   1
    66    22    61   1
    67    23    62   1
    68    23    63   1
    69    25    64   1
    70    28    65   1
    71    29    66   1
    72    33    67   1
    73    35    68   1
    74    36    69   1
    75    38    70   1
    76    38    71   1
    77    40    72   1
    78    41    73   1
    79    42    74   1
    80    43    75   1
    81    44    76   1
@<TRIPOS>SUBSTRUCTURE
     1  XNC      2

