@<TRIPOS>MOLECULE
3gnw_ligand_057
    76    81
SMALL
GAST_HUCK
****
This file was generated by PARSER (from files_GN.cpp)

@<TRIPOS>ATOM
      1 O35        27.4650    0.8694   35.7253 O.2         1 XNC      -0.3687
      2 C16        27.4743    1.7132   36.6185 C.2         1 XNC       0.2510
      3 C17        27.1864    2.9946   36.1780 C.ar        1 XNC       0.1194
      4 C43        27.9015    3.6290   35.1367 C.ar        1 XNC      -0.0209
      5 C42        27.5434    4.9327   34.7517 C.ar        1 XNC      -0.0435
      6 C41        26.4532    5.5746   35.3670 C.ar        1 XNC      -0.0287
      7 C40        25.7259    4.8964   36.3679 C.ar        1 XNC       0.0301
      8 C44        24.5491    5.5109   37.0101 C.3         1 XNC      -0.0144
      9 N39        26.1276    3.6474   36.7320 N.ar        1 XNC      -0.2781
     10 N7         27.6752    1.3480   37.9110 N.am        1 XNC      -0.2078
     11 C4         27.5652    0.0125   38.2478 C.ar        1 XNC       0.0880
     12 C3         26.3212   -0.6325   38.0403 C.ar        1 XNC      -0.0607
     13 C2         26.1380   -1.9802   38.3822 C.ar        1 XNC      -0.0955
     14 C8         28.1981    2.2662   38.9230 C.3         1 XNC       0.1162
     15 C9         29.6764    2.1989   38.9286 C.2         1 XNC       0.0894
     16 S12        30.5187    3.6839   38.6262 S.o2        1 XNC      -0.0239
     17 O32        30.1500    4.7782   39.7130 O.2         1 XNC      -0.1768
     18 O33        30.0927    4.2599   37.2122 O.2         1 XNC      -0.1768
     19 C13        32.3100    3.4528   38.5716 C.3         1 XNC       0.0705
     20 C14        32.6901    1.9680   38.2855 C.3         1 XNC      -0.0050
     21 C37        32.4422    1.5843   36.7883 C.3         1 XNC      -0.0565
     22 C38        34.2147    1.7837   38.5875 C.3         1 XNC      -0.0565
     23 C15        31.8496    1.0523   39.2426 C.3         1 XNC       0.0036
     24 C10        30.3883    1.0451   39.0281 C.2         1 XNC       0.0422
     25 N11        29.8658   -0.1964   39.0899 N.pl3       1 XNC      -0.2908
     26 C5         28.6418   -0.7204   38.8154 C.ar        1 XNC       0.1100
     27 C6         28.4439   -2.0851   39.1536 C.ar        1 XNC       0.0976
     28 O36        29.4215   -2.8442   39.7195 O.3         1 XNC      -0.3423
     29 C1         27.1973   -2.7026   38.9487 C.ar        1 XNC      -0.0580
     30 C18        27.5229    2.1915   40.2866 C.ar        1 XNC       0.0130
     31 C23        26.3868    2.9943   40.6044 C.ar        1 XNC       0.1283
     32 F34        25.8818    3.8490   39.7545 F           1 XNC      -0.1917
     33 C22        25.7566    2.9084   41.8636 C.ar        1 XNC      -0.0061
     34 C21        26.1978    1.9864   42.8338 C.ar        1 XNC       0.0849
     35 C20        27.2927    1.1584   42.5192 C.ar        1 XNC      -0.0435
     36 C19        27.9647    1.3012   41.2993 C.ar        1 XNC      -0.0671
     37 O24        25.5042    1.8906   44.0114 O.3         1 XNC      -0.3110
     38 C25        26.2857    2.0075   45.2256 C.3         1 XNC       0.1027
     39 C26        25.4827    2.0670   46.4745 C.ar        1 XNC      -0.0131
     40 C31        26.1566    1.9787   47.7182 C.ar        1 XNC      -0.0578
     41 C30        25.4449    2.0486   48.9339 C.ar        1 XNC      -0.0685
     42 C29        24.0476    2.2089   48.9179 C.ar        1 XNC      -0.0687
     43 C28        23.3674    2.2928   47.6927 C.ar        1 XNC      -0.0685
     44 C27        24.0761    2.2252   46.4816 C.ar        1 XNC      -0.0578
     45 H1         28.6948    3.1653   34.6839 H           1 XNC       0.0705
     46 H2         28.0715    5.4118   34.0206 H           1 XNC       0.0729
     47 H3         26.1872    6.5179   35.0755 H           1 XNC       0.0684
     48 H4         24.0715    4.8200   37.7070 H           1 XNC       0.0421
     49 H5         23.8149    5.7958   36.2537 H           1 XNC       0.0421
     50 H6         24.8594    6.4003   37.5591 H           1 XNC       0.0421
     51 H7         25.5322   -0.1172   37.6405 H           1 XNC       0.0382
     52 H8         25.2342   -2.4316   38.2260 H           1 XNC       0.0451
     53 H9         27.9642    3.2767   38.5937 H           1 XNC       0.0812
     54 H10        32.6977    3.7620   39.5448 H           1 XNC       0.0503
     55 H11        32.7322    4.1189   37.8174 H           1 XNC       0.0503
     56 H12        32.6988    0.5365   36.6154 H           1 XNC       0.0237
     57 H13        33.0523    2.1999   36.1245 H           1 XNC       0.0237
     58 H14        31.3975    1.7242   36.5070 H           1 XNC       0.0237
     59 H15        34.4379    2.0149   39.6313 H           1 XNC       0.0237
     60 H16        34.8155    2.4443   37.9590 H           1 XNC       0.0237
     61 H17        34.5295    0.7552   38.3970 H           1 XNC       0.0237
     62 H18        32.0196    1.3681   40.2783 H           1 XNC       0.0444
     63 H19        32.2594    0.0378   39.1657 H           1 XNC       0.0444
     64 H20        30.4828   -0.8433   39.4636 H           1 XNC       0.2009
     65 H21        30.1882   -2.7821   39.1107 H           1 XNC       0.2432
     66 H22        27.0566   -3.6821   39.2099 H           1 XNC       0.0389
     67 H23        24.9572    3.5110   42.0738 H           1 XNC       0.0510
     68 H24        27.6200    0.4519   43.1804 H           1 XNC       0.0491
     69 H25        28.7953    0.7245   41.1818 H           1 XNC       0.0520
     70 H26        26.9008    2.9116   45.1822 H           1 XNC       0.0776
     71 H27        26.9434    1.1388   45.3041 H           1 XNC       0.0776
     72 H28        27.1711    1.8661   47.7499 H           1 XNC       0.0557
     73 H29        25.9436    1.9847   49.8206 H           1 XNC       0.0599
     74 H30        23.5309    2.2631   49.7996 H           1 XNC       0.0559
     75 H31        22.3493    2.4069   47.6845 H           1 XNC       0.0599
     76 H32        23.5564    2.3012   45.6029 H           1 XNC       0.0557
@<TRIPOS>BOND
     1     1     2   2
     2     2     3   1
     3     2    10  am
     4     3     4  ar
     5     3     9  ar
     6     4     5  ar
     7     5     6  ar
     8     6     7  ar
     9     7     8   1
    10     7     9  ar
    11    10    11   1
    12    10    14   1
    13    11    12  ar
    14    11    26  ar
    15    12    13  ar
    16    13    29  ar
    17    14    15   1
    18    14    30   1
    19    15    16   1
    20    15    24   2
    21    16    17   2
    22    16    18   2
    23    16    19   1
    24    19    20   1
    25    20    21   1
    26    20    22   1
    27    20    23   1
    28    23    24   1
    29    24    25   1
    30    25    26   1
    31    26    27  ar
    32    27    28   1
    33    27    29  ar
    34    30    31  ar
    35    30    36  ar
    36    31    32   1
    37    31    33  ar
    38    33    34  ar
    39    34    35  ar
    40    34    37   1
    41    35    36  ar
    42    37    38   1
    43    38    39   1
    44    39    40  ar
    45    39    44  ar
    46    40    41  ar
    47    41    42  ar
    48    42    43  ar
    49    43    44  ar
    50     4    45   1
    51     5    46   1
    52     6    47   1
    53     8    48   1
    54     8    49   1
    55     8    50   1
    56    12    51   1
    57    13    52   1
    58    14    53   1
    59    19    54   1
    60    19    55   1
    61    21    56   1
    62    21    57   1
    63    21    58   1
    64    22    59   1
    65    22    60   1
    66    22    61   1
    67    23    62   1
    68    23    63   1
    69    25    64   1
    70    28    65   1
    71    29    66   1
    72    33    67   1
    73    35    68   1
    74    36    69   1
    75    38    70   1
    76    38    71   1
    77    40    72   1
    78    41    73   1
    79    42    74   1
    80    43    75   1
    81    44    76   1
@<TRIPOS>SUBSTRUCTURE
     1  XNC      2

