@<TRIPOS>MOLECULE
3gnw_ligand_062
    76    81
SMALL
GAST_HUCK
****
This file was generated by PARSER (from files_GN.cpp)

@<TRIPOS>ATOM
      1 O35        29.3981    3.0188   44.3382 O.2         1 XNC      -0.3687
      2 C16        28.4443    2.5796   43.7064 C.2         1 XNC       0.2510
      3 C17        27.4393    2.0583   44.5107 C.ar        1 XNC       0.1194
      4 C43        27.6891    1.0312   45.4496 C.ar        1 XNC      -0.0209
      5 C42        26.6419    0.5746   46.2707 C.ar        1 XNC      -0.0435
      6 C41        25.3703    1.1662   46.1749 C.ar        1 XNC      -0.0287
      7 C40        25.1606    2.2106   45.2524 C.ar        1 XNC       0.0301
      8 C44        23.8592    2.9022   45.1736 C.3         1 XNC      -0.0144
      9 N39        26.1918    2.6019   44.4529 N.ar        1 XNC      -0.2781
     10 N7         28.4253    2.6205   42.3520 N.am        1 XNC      -0.2078
     11 C4         27.6181    1.7498   41.6290 C.ar        1 XNC       0.0880
     12 C3         27.6533    0.3562   41.9106 C.ar        1 XNC      -0.0607
     13 C2         26.8707   -0.5583   41.1864 C.ar        1 XNC      -0.0955
     14 C8         29.3585    3.4424   41.5728 C.3         1 XNC       0.1162
     15 C9         28.6981    4.6031   40.9535 C.2         1 XNC       0.0894
     16 S12        29.6994    6.0024   40.7586 S.o2        1 XNC      -0.0239
     17 O32        30.9423    5.6145   39.8493 O.2         1 XNC      -0.1768
     18 O33        30.2694    6.5025   42.1586 O.2         1 XNC      -0.1768
     19 C13        28.8055    7.3582   39.9769 C.3         1 XNC       0.0705
     20 C14        27.6094    6.8273   39.1267 C.3         1 XNC      -0.0050
     21 C37        26.7110    8.0450   38.7288 C.3         1 XNC      -0.0565
     22 C38        28.1105    6.1325   37.8155 C.3         1 XNC      -0.0565
     23 C15        26.7710    5.8440   40.0182 C.3         1 XNC       0.0036
     24 C10        27.4453    4.5956   40.4316 C.2         1 XNC       0.0422
     25 N11        26.7387    3.4931   40.1441 N.pl3       1 XNC      -0.2908
     26 C5         26.8228    2.2001   40.5415 C.ar        1 XNC       0.1100
     27 C6         26.0226    1.2747   39.8287 C.ar        1 XNC       0.0976
     28 O36        25.2522    1.6448   38.7661 O.3         1 XNC      -0.3423
     29 C1         26.0365   -0.0899   40.1656 C.ar        1 XNC      -0.0580
     30 C18        30.2553    2.6197   40.6764 C.ar        1 XNC       0.0130
     31 C23        31.5556    2.2335   41.1126 C.ar        1 XNC       0.1283
     32 F34        32.0613    2.6726   42.2396 F           1 XNC      -0.1917
     33 C22        32.3700    1.3976   40.3281 C.ar        1 XNC      -0.0061
     34 C21        31.9226    0.9481   39.0675 C.ar        1 XNC       0.0849
     35 C20        30.6583    1.3558   38.6039 C.ar        1 XNC      -0.0435
     36 C19        29.8240    2.1663   39.4017 C.ar        1 XNC      -0.0671
     37 O24        32.6820    0.1460   38.2602 O.3         1 XNC      -0.3110
     38 C25        34.0955    0.4537   38.1913 C.3         1 XNC       0.1027
     39 C26        34.6252    0.4662   36.8061 C.ar        1 XNC      -0.0131
     40 C31        33.8376    0.1086   35.6847 C.ar        1 XNC      -0.0578
     41 C30        34.3691    0.1784   34.3852 C.ar        1 XNC      -0.0685
     42 C29        35.6989    0.5924   34.1909 C.ar        1 XNC      -0.0687
     43 C28        36.4962    0.9464   35.2941 C.ar        1 XNC      -0.0685
     44 C27        35.9629    0.8782   36.5950 C.ar        1 XNC      -0.0578
     45 H1         28.6145    0.5967   45.5252 H           1 XNC       0.0705
     46 H2         26.8028   -0.1818   46.9404 H           1 XNC       0.0729
     47 H3         24.6100    0.8440   46.7767 H           1 XNC       0.0684
     48 H4         23.8629    3.6519   44.3781 H           1 XNC       0.0421
     49 H5         23.6564    3.3993   46.1209 H           1 XNC       0.0421
     50 H6         23.0674    2.1747   44.9764 H           1 XNC       0.0421
     51 H7         28.2681   -0.0106   42.6395 H           1 XNC       0.0382
     52 H8         26.9076   -1.5556   41.4008 H           1 XNC       0.0451
     53 H9         30.0416    3.9091   42.2811 H           1 XNC       0.0812
     54 H10        29.5036    7.9406   39.3682 H           1 XNC       0.0503
     55 H11        28.4396    8.0014   40.7836 H           1 XNC       0.0503
     56 H12        25.8597    7.7149   38.1269 H           1 XNC       0.0237
     57 H13        27.2774    8.7776   38.1483 H           1 XNC       0.0237
     58 H14        26.3211    8.5450   39.6203 H           1 XNC       0.0237
     59 H15        28.7583    5.2814   38.0366 H           1 XNC       0.0237
     60 H16        28.6785    6.8351   37.1992 H           1 XNC       0.0237
     61 H17        27.2650    5.7655   37.2291 H           1 XNC       0.0237
     62 H18        25.8335    5.6331   39.4852 H           1 XNC       0.0444
     63 H19        26.4844    6.3594   40.9430 H           1 XNC       0.0444
     64 H20        26.0211    3.6535   39.5122 H           1 XNC       0.2009
     65 H21        25.8771    1.7957   38.0174 H           1 XNC       0.2432
     66 H22        25.4532   -0.7541   39.6478 H           1 XNC       0.0389
     67 H23        33.2872    1.1075   40.6832 H           1 XNC       0.0510
     68 H24        30.3284    1.0484   37.6823 H           1 XNC       0.0491
     69 H25        28.8958    2.4159   39.0396 H           1 XNC       0.0520
     70 H26        34.6247   -0.3304   38.7504 H           1 XNC       0.0776
     71 H27        34.3341    1.4299   38.6439 H           1 XNC       0.0776
     72 H28        32.8639   -0.1869   35.7923 H           1 XNC       0.0557
     73 H29        33.7852   -0.0642   33.5822 H           1 XNC       0.0599
     74 H30        36.0840    0.6485   33.2423 H           1 XNC       0.0559
     75 H31        37.4578    1.2623   35.1529 H           1 XNC       0.0599
     76 H32        36.5574    1.1411   37.3864 H           1 XNC       0.0557
@<TRIPOS>BOND
     1     1     2   2
     2     2     3   1
     3     2    10  am
     4     3     4  ar
     5     3     9  ar
     6     4     5  ar
     7     5     6  ar
     8     6     7  ar
     9     7     8   1
    10     7     9  ar
    11    10    11   1
    12    10    14   1
    13    11    12  ar
    14    11    26  ar
    15    12    13  ar
    16    13    29  ar
    17    14    15   1
    18    14    30   1
    19    15    16   1
    20    15    24   2
    21    16    17   2
    22    16    18   2
    23    16    19   1
    24    19    20   1
    25    20    21   1
    26    20    22   1
    27    20    23   1
    28    23    24   1
    29    24    25   1
    30    25    26   1
    31    26    27  ar
    32    27    28   1
    33    27    29  ar
    34    30    31  ar
    35    30    36  ar
    36    31    32   1
    37    31    33  ar
    38    33    34  ar
    39    34    35  ar
    40    34    37   1
    41    35    36  ar
    42    37    38   1
    43    38    39   1
    44    39    40  ar
    45    39    44  ar
    46    40    41  ar
    47    41    42  ar
    48    42    43  ar
    49    43    44  ar
    50     4    45   1
    51     5    46   1
    52     6    47   1
    53     8    48   1
    54     8    49   1
    55     8    50   1
    56    12    51   1
    57    13    52   1
    58    14    53   1
    59    19    54   1
    60    19    55   1
    61    21    56   1
    62    21    57   1
    63    21    58   1
    64    22    59   1
    65    22    60   1
    66    22    61   1
    67    23    62   1
    68    23    63   1
    69    25    64   1
    70    28    65   1
    71    29    66   1
    72    33    67   1
    73    35    68   1
    74    36    69   1
    75    38    70   1
    76    38    71   1
    77    40    72   1
    78    41    73   1
    79    42    74   1
    80    43    75   1
    81    44    76   1
@<TRIPOS>SUBSTRUCTURE
     1  XNC      2

