@<TRIPOS>MOLECULE
3gnw_ligand_093
    76    81
SMALL
GAST_HUCK
****
This file was generated by PARSER (from files_GN.cpp)

@<TRIPOS>ATOM
      1 O35        31.4509    0.5070   35.0343 O.2         1 XNC      -0.3687
      2 C16        32.2961    1.1477   35.6503 C.2         1 XNC       0.2510
      3 C17        33.5893    0.8900   35.2180 C.ar        1 XNC       0.1194
      4 C43        34.2227   -0.3479   35.4658 C.ar        1 XNC      -0.0209
      5 C42        35.5348   -0.5540   34.9948 C.ar        1 XNC      -0.0435
      6 C41        36.1843    0.4546   34.2670 C.ar        1 XNC      -0.0287
      7 C40        35.5139    1.6708   34.0192 C.ar        1 XNC       0.0301
      8 C44        36.1327    2.7242   33.1982 C.3         1 XNC      -0.0144
      9 N39        34.2517    1.8397   34.5029 N.ar        1 XNC      -0.2781
     10 N7         31.9443    2.0609   36.5818 N.am        1 XNC      -0.2078
     11 C4         32.8882    2.7172   37.3613 C.ar        1 XNC       0.0880
     12 C3         33.8465    1.9581   38.0857 C.ar        1 XNC      -0.0607
     13 C2         34.8032    2.5811   38.8979 C.ar        1 XNC      -0.0955
     14 C8         30.5431    2.4388   36.7889 C.3         1 XNC       0.1162
     15 C9         30.2971    3.6066   35.9226 C.2         1 XNC       0.0894
     16 S12        28.9905    3.4790   34.8031 S.o2        1 XNC      -0.0239
     17 O32        27.6540    3.1968   35.6179 O.2         1 XNC      -0.1768
     18 O33        29.2119    2.2617   33.8022 O.2         1 XNC      -0.1768
     19 C13        28.7805    4.9986   33.8575 C.3         1 XNC       0.0705
     20 C14        29.3667    6.2336   34.6088 C.3         1 XNC      -0.0050
     21 C37        29.4278    7.4434   33.6173 C.3         1 XNC      -0.0565
     22 C38        28.4648    6.6575   35.8125 C.3         1 XNC      -0.0565
     23 C15        30.8224    5.8869   35.0810 C.3         1 XNC       0.0036
     24 C10        31.0086    4.7604   36.0121 C.2         1 XNC       0.0422
     25 N11        32.0008    4.9665   36.8997 N.pl3       1 XNC      -0.2908
     26 C5         32.8697    4.1275   37.5271 C.ar        1 XNC       0.1100
     27 C6         33.8290    4.7419   38.3694 C.ar        1 XNC       0.0976
     28 O36        33.8382    6.0836   38.5794 O.3         1 XNC      -0.3423
     29 C1         34.8036    3.9732   39.0333 C.ar        1 XNC      -0.0580
     30 C18        30.1081    2.5169   38.2337 C.ar        1 XNC       0.0130
     31 C23        30.6045    1.5706   39.1720 C.ar        1 XNC       0.1283
     32 F34        31.4834    0.6720   38.8256 F           1 XNC      -0.1917
     33 C22        30.1743    1.5771   40.5120 C.ar        1 XNC      -0.0061
     34 C21        29.2050    2.5020   40.9538 C.ar        1 XNC       0.0849
     35 C20        28.7142    3.4559   40.0441 C.ar        1 XNC      -0.0435
     36 C19        29.1639    3.4642   38.7100 C.ar        1 XNC      -0.0671
     37 O24        28.7806    2.5239   42.2557 O.3         1 XNC      -0.3110
     38 C25        27.7853    1.5389   42.6101 C.3         1 XNC       0.1027
     39 C26        27.4844    1.4949   44.0640 C.ar        1 XNC      -0.0131
     40 C31        28.0100    2.4376   44.9825 C.ar        1 XNC      -0.0578
     41 C30        27.7050    2.3555   46.3533 C.ar        1 XNC      -0.0685
     42 C29        26.8742    1.3229   46.8288 C.ar        1 XNC      -0.0687
     43 C28        26.3482    0.3782   45.9297 C.ar        1 XNC      -0.0685
     44 C27        26.6490    0.4648   44.5603 C.ar        1 XNC      -0.0578
     45 H1         33.7545   -1.0845   35.9993 H           1 XNC       0.0705
     46 H2         36.0046   -1.4431   35.1717 H           1 XNC       0.0729
     47 H3         37.1288    0.2943   33.9074 H           1 XNC       0.0684
     48 H4         35.4528    3.5670   33.0541 H           1 XNC       0.0421
     49 H5         36.3857    2.3190   32.2150 H           1 XNC       0.0421
     50 H6         37.0429    3.0898   33.6790 H           1 XNC       0.0421
     51 H7         33.8478    0.9357   38.0244 H           1 XNC       0.0382
     52 H8         35.4980    2.0144   39.3929 H           1 XNC       0.0451
     53 H9         29.9050    1.6226   36.4432 H           1 XNC       0.0812
     54 H10        27.7182    5.1391   33.6393 H           1 XNC       0.0503
     55 H11        29.3010    4.8602   32.9063 H           1 XNC       0.0503
     56 H12        29.8221    8.3343   34.1111 H           1 XNC       0.0237
     57 H13        28.4342    7.6790   33.2307 H           1 XNC       0.0237
     58 H14        30.0759    7.2174   32.7695 H           1 XNC       0.0237
     59 H15        28.3457    5.8449   36.5240 H           1 XNC       0.0237
     60 H16        27.4689    6.9423   35.4685 H           1 XNC       0.0237
     61 H17        28.9006    7.5075   36.3417 H           1 XNC       0.0237
     62 H18        31.2566    6.8006   35.5072 H           1 XNC       0.0444
     63 H19        31.4280    5.6533   34.1986 H           1 XNC       0.0444
     64 H20        32.1813    5.9064   37.0666 H           1 XNC       0.2009
     65 H21        33.2681    6.2125   39.3682 H           1 XNC       0.2432
     66 H22        35.5017    4.4250   39.6258 H           1 XNC       0.0389
     67 H23        30.5538    0.8925   41.1687 H           1 XNC       0.0510
     68 H24        28.0202    4.1442   40.3532 H           1 XNC       0.0491
     69 H25        28.7670    4.1631   38.0882 H           1 XNC       0.0520
     70 H26        28.1358    0.5441   42.3234 H           1 XNC       0.0776
     71 H27        26.8555    1.7458   42.0733 H           1 XNC       0.0776
     72 H28        28.6178    3.1967   44.6680 H           1 XNC       0.0557
     73 H29        28.0889    3.0436   47.0081 H           1 XNC       0.0599
     74 H30        26.6576    1.2615   47.8291 H           1 XNC       0.0559
     75 H31        25.7467   -0.3735   46.2775 H           1 XNC       0.0599
     76 H32        26.2589   -0.2337   43.9262 H           1 XNC       0.0557
@<TRIPOS>BOND
     1     1     2   2
     2     2     3   1
     3     2    10  am
     4     3     4  ar
     5     3     9  ar
     6     4     5  ar
     7     5     6  ar
     8     6     7  ar
     9     7     8   1
    10     7     9  ar
    11    10    11   1
    12    10    14   1
    13    11    12  ar
    14    11    26  ar
    15    12    13  ar
    16    13    29  ar
    17    14    15   1
    18    14    30   1
    19    15    16   1
    20    15    24   2
    21    16    17   2
    22    16    18   2
    23    16    19   1
    24    19    20   1
    25    20    21   1
    26    20    22   1
    27    20    23   1
    28    23    24   1
    29    24    25   1
    30    25    26   1
    31    26    27  ar
    32    27    28   1
    33    27    29  ar
    34    30    31  ar
    35    30    36  ar
    36    31    32   1
    37    31    33  ar
    38    33    34  ar
    39    34    35  ar
    40    34    37   1
    41    35    36  ar
    42    37    38   1
    43    38    39   1
    44    39    40  ar
    45    39    44  ar
    46    40    41  ar
    47    41    42  ar
    48    42    43  ar
    49    43    44  ar
    50     4    45   1
    51     5    46   1
    52     6    47   1
    53     8    48   1
    54     8    49   1
    55     8    50   1
    56    12    51   1
    57    13    52   1
    58    14    53   1
    59    19    54   1
    60    19    55   1
    61    21    56   1
    62    21    57   1
    63    21    58   1
    64    22    59   1
    65    22    60   1
    66    22    61   1
    67    23    62   1
    68    23    63   1
    69    25    64   1
    70    28    65   1
    71    29    66   1
    72    33    67   1
    73    35    68   1
    74    36    69   1
    75    38    70   1
    76    38    71   1
    77    40    72   1
    78    41    73   1
    79    42    74   1
    80    43    75   1
    81    44    76   1
@<TRIPOS>SUBSTRUCTURE
     1  XNC      2

