@<TRIPOS>MOLECULE
3gnw_ligand_061
    76    81
SMALL
GAST_HUCK
****
This file was generated by PARSER (from files_GN.cpp)

@<TRIPOS>ATOM
      1 O35        34.8700    2.2191   34.3206 O.2         1 XNC      -0.3687
      2 C16        35.6038    3.0765   34.8077 C.2         1 XNC       0.2510
      3 C17        36.2032    3.9200   33.8352 C.ar        1 XNC       0.1194
      4 C43        36.7299    5.2192   34.0669 C.ar        1 XNC      -0.0209
      5 C42        37.2717    5.9821   33.0144 C.ar        1 XNC      -0.0435
      6 C41        37.2369    5.4873   31.7038 C.ar        1 XNC      -0.0287
      7 C40        36.6604    4.2284   31.4626 C.ar        1 XNC       0.0301
      8 C44        36.5462    3.6962   30.0952 C.3         1 XNC      -0.0144
      9 N39        36.1896    3.5204   32.5242 N.ar        1 XNC      -0.2781
     10 N7         35.6978    3.1155   36.1668 N.am        1 XNC      -0.2078
     11 C4         36.6440    3.8850   36.7920 C.ar        1 XNC       0.0880
     12 C3         38.0154    3.6033   36.5899 C.ar        1 XNC      -0.0607
     13 C2         39.0008    4.4372   37.1385 C.ar        1 XNC      -0.0955
     14 C8         34.7319    2.4598   37.0548 C.3         1 XNC       0.1162
     15 C9         33.6151    3.3894   37.3100 C.2         1 XNC       0.0894
     16 S12        32.0501    2.8586   36.7909 S.o2        1 XNC      -0.0239
     17 O32        31.6752    1.4211   37.3552 O.2         1 XNC      -0.1768
     18 O33        32.0890    2.7497   35.2072 O.2         1 XNC      -0.1768
     19 C13        30.7699    4.0605   37.1988 C.3         1 XNC       0.0705
     20 C14        31.3542    5.5046   37.2935 C.3         1 XNC      -0.0050
     21 C37        31.6933    6.0895   35.8823 C.3         1 XNC      -0.0565
     22 C38        30.2666    6.4247   37.9425 C.3         1 XNC      -0.0565
     23 C15        32.6294    5.4687   38.2096 C.3         1 XNC       0.0036
     24 C10        33.7776    4.6722   37.7444 C.2         1 XNC       0.0422
     25 N11        34.9678    5.2872   37.9356 N.pl3       1 XNC      -0.2908
     26 C5         36.2540    4.9655   37.6320 C.ar        1 XNC       0.1100
     27 C6         37.2650    5.8080   38.1573 C.ar        1 XNC       0.0976
     28 O36        36.9620    6.8919   38.9077 O.3         1 XNC      -0.3423
     29 C1         38.6256    5.5408   37.9189 C.ar        1 XNC      -0.0580
     30 C18        35.3256    1.7582   38.2678 C.ar        1 XNC       0.0130
     31 C23        35.6988    0.3890   38.1970 C.ar        1 XNC       0.1283
     32 F34        35.4723   -0.3293   37.1295 F           1 XNC      -0.1917
     33 C22        36.3522   -0.2456   39.2710 C.ar        1 XNC      -0.0061
     34 C21        36.6979    0.4587   40.4370 C.ar        1 XNC       0.0849
     35 C20        36.3124    1.8107   40.5332 C.ar        1 XNC      -0.0435
     36 C19        35.6212    2.4358   39.4761 C.ar        1 XNC      -0.0671
     37 O24        37.3936   -0.2684   41.3832 O.3         1 XNC      -0.3110
     38 C25        37.7424    0.2363   42.6888 C.3         1 XNC       0.1027
     39 C26        39.0326    0.9741   42.7552 C.ar        1 XNC      -0.0131
     40 C31        39.2750    1.8735   43.8204 C.ar        1 XNC      -0.0578
     41 C30        40.5080    2.5396   43.9415 C.ar        1 XNC      -0.0685
     42 C29        41.5334    2.2953   43.0116 C.ar        1 XNC      -0.0687
     43 C28        41.3278    1.3726   41.9706 C.ar        1 XNC      -0.0685
     44 C27        40.0888    0.7095   41.8477 C.ar        1 XNC      -0.0578
     45 H1         36.7068    5.6561   34.9825 H           1 XNC       0.0705
     46 H2         37.6618    6.9092   33.2010 H           1 XNC       0.0729
     47 H3         37.6062    6.0553   30.9344 H           1 XNC       0.0684
     48 H4         36.0434    2.7282   30.0877 H           1 XNC       0.0421
     49 H5         37.5411    3.5751   29.6635 H           1 XNC       0.0421
     50 H6         35.9709    4.3885   29.4790 H           1 XNC       0.0421
     51 H7         38.2942    2.8165   35.9984 H           1 XNC       0.0382
     52 H8         39.9873    4.2396   36.9661 H           1 XNC       0.0451
     53 H9         34.2959    1.6251   36.4964 H           1 XNC       0.0812
     54 H10        30.3470    3.7593   38.1597 H           1 XNC       0.0503
     55 H11        29.9754    3.9997   36.4519 H           1 XNC       0.0503
     56 H12        32.0829    7.1065   35.9690 H           1 XNC       0.0237
     57 H13        30.8033    6.1190   35.2490 H           1 XNC       0.0237
     58 H14        32.4453    5.4890   35.3741 H           1 XNC       0.0237
     59 H15        30.0060    6.0756   38.9449 H           1 XNC       0.0237
     60 H16        29.3543    6.4323   37.3406 H           1 XNC       0.0237
     61 H17        30.6244    7.4531   38.0284 H           1 XNC       0.0237
     62 H18        32.3445    5.0647   39.1858 H           1 XNC       0.0444
     63 H19        32.9297    6.5058   38.3908 H           1 XNC       0.0444
     64 H20        34.8906    6.1174   38.4306 H           1 XNC       0.2009
     65 H21        36.7049    6.5276   39.7803 H           1 XNC       0.2432
     66 H22        39.3470    6.1551   38.3039 H           1 XNC       0.0389
     67 H23        36.6084   -1.2300   39.1852 H           1 XNC       0.0510
     68 H24        36.5429    2.3690   41.3561 H           1 XNC       0.0491
     69 H25        35.3690    3.4119   39.6030 H           1 XNC       0.0520
     70 H26        37.8488   -0.6198   43.3433 H           1 XNC       0.0776
     71 H27        36.9133    0.8343   43.0848 H           1 XNC       0.0776
     72 H28        38.5508    2.0541   44.5195 H           1 XNC       0.0557
     73 H29        40.6596    3.2060   44.7039 H           1 XNC       0.0599
     74 H30        42.4284    2.7859   43.0969 H           1 XNC       0.0559
     75 H31        42.0833    1.1795   41.3083 H           1 XNC       0.0599
     76 H32        39.9690    0.0215   41.1020 H           1 XNC       0.0557
@<TRIPOS>BOND
     1     1     2   2
     2     2     3   1
     3     2    10  am
     4     3     4  ar
     5     3     9  ar
     6     4     5  ar
     7     5     6  ar
     8     6     7  ar
     9     7     8   1
    10     7     9  ar
    11    10    11   1
    12    10    14   1
    13    11    12  ar
    14    11    26  ar
    15    12    13  ar
    16    13    29  ar
    17    14    15   1
    18    14    30   1
    19    15    16   1
    20    15    24   2
    21    16    17   2
    22    16    18   2
    23    16    19   1
    24    19    20   1
    25    20    21   1
    26    20    22   1
    27    20    23   1
    28    23    24   1
    29    24    25   1
    30    25    26   1
    31    26    27  ar
    32    27    28   1
    33    27    29  ar
    34    30    31  ar
    35    30    36  ar
    36    31    32   1
    37    31    33  ar
    38    33    34  ar
    39    34    35  ar
    40    34    37   1
    41    35    36  ar
    42    37    38   1
    43    38    39   1
    44    39    40  ar
    45    39    44  ar
    46    40    41  ar
    47    41    42  ar
    48    42    43  ar
    49    43    44  ar
    50     4    45   1
    51     5    46   1
    52     6    47   1
    53     8    48   1
    54     8    49   1
    55     8    50   1
    56    12    51   1
    57    13    52   1
    58    14    53   1
    59    19    54   1
    60    19    55   1
    61    21    56   1
    62    21    57   1
    63    21    58   1
    64    22    59   1
    65    22    60   1
    66    22    61   1
    67    23    62   1
    68    23    63   1
    69    25    64   1
    70    28    65   1
    71    29    66   1
    72    33    67   1
    73    35    68   1
    74    36    69   1
    75    38    70   1
    76    38    71   1
    77    40    72   1
    78    41    73   1
    79    42    74   1
    80    43    75   1
    81    44    76   1
@<TRIPOS>SUBSTRUCTURE
     1  XNC      2

