@<TRIPOS>MOLECULE
3gnw_ligand_089
    76    81
SMALL
GAST_HUCK
****
This file was generated by PARSER (from files_GN.cpp)

@<TRIPOS>ATOM
      1 O35        32.1402    0.2864   38.1287 O.2         1 XNC      -0.3687
      2 C16        31.9625    1.4832   38.3358 C.2         1 XNC       0.2510
      3 C17        32.8644    2.0384   39.2251 C.ar        1 XNC       0.1194
      4 C43        32.8250    1.7588   40.6093 C.ar        1 XNC      -0.0209
      5 C42        33.8247    2.2960   41.4378 C.ar        1 XNC      -0.0435
      6 C41        34.8359    3.1086   40.8913 C.ar        1 XNC      -0.0287
      7 C40        34.8375    3.3767   39.5066 C.ar        1 XNC       0.0301
      8 C44        35.8853    4.2043   38.8874 C.3         1 XNC      -0.0144
      9 N39        33.8602    2.8269   38.7388 N.ar        1 XNC      -0.2781
     10 N7         31.0070    2.1813   37.6795 N.am        1 XNC      -0.2078
     11 C4         30.3793    1.6120   36.5954 C.ar        1 XNC       0.0880
     12 C3         31.1408    1.3110   35.4426 C.ar        1 XNC      -0.0607
     13 C2         30.5339    0.7900   34.2910 C.ar        1 XNC      -0.0955
     14 C8         30.4060    3.4080   38.2103 C.3         1 XNC       0.1162
     15 C9         29.3669    3.0026   39.1785 C.2         1 XNC       0.0894
     16 S12        29.4603    3.7431   40.7427 S.o2        1 XNC      -0.0239
     17 O32        29.4961    5.3311   40.6022 O.2         1 XNC      -0.1768
     18 O33        30.7915    3.2991   41.4972 O.2         1 XNC      -0.1768
     19 C13        28.0453    3.2658   41.7583 C.3         1 XNC       0.0705
     20 C14        27.4661    1.8864   41.3159 C.3         1 XNC      -0.0050
     21 C37        28.4268    0.7055   41.6916 C.3         1 XNC      -0.0565
     22 C38        26.1149    1.6705   42.0735 C.3         1 XNC      -0.0565
     23 C15        27.2038    1.9162   39.7738 C.3         1 XNC       0.0036
     24 C10        28.3564    2.1407   38.8812 C.2         1 XNC       0.0422
     25 N11        28.1597    1.6114   37.6512 N.pl3       1 XNC      -0.2908
     26 C5         28.9769    1.3780   36.5852 C.ar        1 XNC       0.1100
     27 C6         28.3732    0.8495   35.4146 C.ar        1 XNC       0.0976
     28 O36        27.0382    0.5982   35.3713 O.3         1 XNC      -0.3423
     29 C1         29.1489    0.5706   34.2709 C.ar        1 XNC      -0.0580
     30 C18        29.9978    4.4041   37.1501 C.ar        1 XNC       0.0130
     31 C23        28.7376    5.0731   37.0790 C.ar        1 XNC       0.1283
     32 F34        27.8077    4.9865   37.9960 F           1 XNC      -0.1917
     33 C22        28.4363    5.9425   36.0160 C.ar        1 XNC      -0.0061
     34 C21        29.4025    6.2339   35.0399 C.ar        1 XNC       0.0849
     35 C20        30.6523    5.5854   35.0853 C.ar        1 XNC      -0.0435
     36 C19        30.9447    4.6835   36.1264 C.ar        1 XNC      -0.0671
     37 O24        29.1217    7.1737   34.0959 O.3         1 XNC      -0.3110
     38 C25        29.0858    8.5583   34.5534 C.3         1 XNC       0.1027
     39 C26        28.9318    8.8185   36.0171 C.ar        1 XNC      -0.0131
     40 C31        27.7493    9.3952   36.5439 C.ar        1 XNC      -0.0578
     41 C30        27.5960    9.5980   37.9315 C.ar        1 XNC      -0.0685
     42 C29        28.6323    9.2228   38.8112 C.ar        1 XNC      -0.0687
     43 C28        29.8237    8.6688   38.3015 C.ar        1 XNC      -0.0685
     44 C27        29.9604    8.4472   36.9146 C.ar        1 XNC      -0.0578
     45 H1         32.0952    1.1673   41.0122 H           1 XNC       0.0705
     46 H2         33.8080    2.1108   42.4472 H           1 XNC       0.0729
     47 H3         35.5567    3.5017   41.4987 H           1 XNC       0.0684
     48 H4         35.7294    4.2927   37.8093 H           1 XNC       0.0421
     49 H5         36.8678    3.7598   39.0612 H           1 XNC       0.0421
     50 H6         35.8593    5.2010   39.3273 H           1 XNC       0.0421
     51 H7         32.1523    1.4780   35.4352 H           1 XNC       0.0382
     52 H8         31.0996    0.5716   33.4641 H           1 XNC       0.0451
     53 H9         31.1818    3.9532   38.7505 H           1 XNC       0.0812
     54 H10        27.2895    4.0474   41.6334 H           1 XNC       0.0503
     55 H11        28.3555    3.2480   42.8078 H           1 XNC       0.0503
     56 H12        28.0329   -0.2449   41.3228 H           1 XNC       0.0237
     57 H13        28.5326    0.6286   42.7730 H           1 XNC       0.0237
     58 H14        29.4191    0.8441   41.2609 H           1 XNC       0.0237
     59 H15        25.3979    2.4555   41.8181 H           1 XNC       0.0237
     60 H16        26.2666    1.6961   43.1553 H           1 XNC       0.0237
     61 H17        25.6683    0.7092   41.8165 H           1 XNC       0.0237
     62 H18        26.4748    2.7041   39.5550 H           1 XNC       0.0444
     63 H19        26.7218    0.9656   39.5118 H           1 XNC       0.0444
     64 H20        27.2482    1.3027   37.5054 H           1 XNC       0.2009
     65 H21        26.7116    1.0242   34.5451 H           1 XNC       0.2432
     66 H22        28.7125    0.1780   33.4349 H           1 XNC       0.0389
     67 H23        27.5268    6.3987   35.9727 H           1 XNC       0.0510
     68 H24        31.3659    5.7965   34.3771 H           1 XNC       0.0491
     69 H25        31.8655    4.2465   36.1422 H           1 XNC       0.0520
     70 H26        28.2513    9.0265   34.0186 H           1 XNC       0.0776
     71 H27        29.9934    9.0567   34.1912 H           1 XNC       0.0776
     72 H28        26.9776    9.6448   35.9196 H           1 XNC       0.0557
     73 H29        26.7426   10.0046   38.2961 H           1 XNC       0.0599
     74 H30        28.5292    9.3732   39.8133 H           1 XNC       0.0559
     75 H31        30.5787    8.4098   38.9411 H           1 XNC       0.0599
     76 H32        30.8217    8.0263   36.5725 H           1 XNC       0.0557
@<TRIPOS>BOND
     1     1     2   2
     2     2     3   1
     3     2    10  am
     4     3     4  ar
     5     3     9  ar
     6     4     5  ar
     7     5     6  ar
     8     6     7  ar
     9     7     8   1
    10     7     9  ar
    11    10    11   1
    12    10    14   1
    13    11    12  ar
    14    11    26  ar
    15    12    13  ar
    16    13    29  ar
    17    14    15   1
    18    14    30   1
    19    15    16   1
    20    15    24   2
    21    16    17   2
    22    16    18   2
    23    16    19   1
    24    19    20   1
    25    20    21   1
    26    20    22   1
    27    20    23   1
    28    23    24   1
    29    24    25   1
    30    25    26   1
    31    26    27  ar
    32    27    28   1
    33    27    29  ar
    34    30    31  ar
    35    30    36  ar
    36    31    32   1
    37    31    33  ar
    38    33    34  ar
    39    34    35  ar
    40    34    37   1
    41    35    36  ar
    42    37    38   1
    43    38    39   1
    44    39    40  ar
    45    39    44  ar
    46    40    41  ar
    47    41    42  ar
    48    42    43  ar
    49    43    44  ar
    50     4    45   1
    51     5    46   1
    52     6    47   1
    53     8    48   1
    54     8    49   1
    55     8    50   1
    56    12    51   1
    57    13    52   1
    58    14    53   1
    59    19    54   1
    60    19    55   1
    61    21    56   1
    62    21    57   1
    63    21    58   1
    64    22    59   1
    65    22    60   1
    66    22    61   1
    67    23    62   1
    68    23    63   1
    69    25    64   1
    70    28    65   1
    71    29    66   1
    72    33    67   1
    73    35    68   1
    74    36    69   1
    75    38    70   1
    76    38    71   1
    77    40    72   1
    78    41    73   1
    79    42    74   1
    80    43    75   1
    81    44    76   1
@<TRIPOS>SUBSTRUCTURE
     1  XNC      2

