@<TRIPOS>MOLECULE
3gnw_ligand_082
    76    81
SMALL
GAST_HUCK
****
This file was generated by PARSER (from files_GN.cpp)

@<TRIPOS>ATOM
      1 O35        25.9749    2.8696   37.8725 O.2         1 XNC      -0.3687
      2 C16        26.6566    1.8921   37.5791 C.2         1 XNC       0.2510
      3 C17        27.0618    1.8819   36.2413 C.ar        1 XNC       0.1194
      4 C43        28.2808    1.3184   35.7878 C.ar        1 XNC      -0.0209
      5 C42        28.6378    1.4316   34.4317 C.ar        1 XNC      -0.0435
      6 C41        27.7987    2.1157   33.5339 C.ar        1 XNC      -0.0287
      7 C40        26.6022    2.6896   34.0146 C.ar        1 XNC       0.0301
      8 C44        25.6959    3.4723   33.1532 C.3         1 XNC      -0.0144
      9 N39        26.2985    2.5492   35.3303 N.ar        1 XNC      -0.2781
     10 N7         26.9844    0.9989   38.5448 N.am        1 XNC      -0.2078
     11 C4         27.4437   -0.2807   38.2476 C.ar        1 XNC       0.0880
     12 C3         26.7117   -1.0800   37.3303 C.ar        1 XNC      -0.0607
     13 C2         27.0994   -2.3965   37.0351 C.ar        1 XNC      -0.0955
     14 C8         26.9411    1.3888   39.9630 C.3         1 XNC       0.1162
     15 C9         28.2972    1.8897   40.2571 C.2         1 XNC       0.0894
     16 S12        28.4514    3.5688   40.6323 S.o2        1 XNC      -0.0239
     17 O32        27.4738    3.9830   41.8165 O.2         1 XNC      -0.1768
     18 O33        28.0580    4.4359   39.3582 O.2         1 XNC      -0.1768
     19 C13        30.1545    3.9578   41.0718 C.3         1 XNC       0.0705
     20 C14        31.1497    3.0050   40.3386 C.3         1 XNC      -0.0050
     21 C37        31.1944    3.2844   38.7974 C.3         1 XNC      -0.0565
     22 C38        32.5819    3.2487   40.9198 C.3         1 XNC      -0.0565
     23 C15        30.7249    1.5240   40.6309 C.3         1 XNC       0.0036
     24 C10        29.3952    1.0943   40.1700 C.2         1 XNC       0.0422
     25 N11        29.3650   -0.1954   39.7873 N.pl3       1 XNC      -0.2908
     26 C5         28.5621   -0.8612   38.9159 C.ar        1 XNC       0.1100
     27 C6         28.9041   -2.2119   38.6513 C.ar        1 XNC       0.0976
     28 O36        29.9612   -2.8246   39.2414 O.3         1 XNC      -0.3423
     29 C1         28.1833   -2.9683   37.7102 C.ar        1 XNC      -0.0580
     30 C18        26.3559    0.4265   40.9705 C.ar        1 XNC       0.0130
     31 C23        25.3913   -0.5512   40.5910 C.ar        1 XNC       0.1283
     32 F34        25.0079   -0.7114   39.3479 F           1 XNC      -0.1917
     33 C22        24.7690   -1.3615   41.5575 C.ar        1 XNC      -0.0061
     34 C21        25.0572   -1.2095   42.9264 C.ar        1 XNC       0.0849
     35 C20        25.9790   -0.2203   43.3238 C.ar        1 XNC      -0.0435
     36 C19        26.6016    0.5988   42.3644 C.ar        1 XNC      -0.0671
     37 O24        24.5305   -2.0900   43.8336 O.3         1 XNC      -0.3110
     38 C25        23.1124   -1.9723   44.0930 C.3         1 XNC       0.1027
     39 C26        22.5822   -3.2515   44.6404 C.ar        1 XNC      -0.0131
     40 C31        21.2180   -3.6061   44.4771 C.ar        1 XNC      -0.0578
     41 C30        20.7178   -4.8187   44.9844 C.ar        1 XNC      -0.0685
     42 C29        21.5717   -5.7036   45.6677 C.ar        1 XNC      -0.0687
     43 C28        22.9230   -5.3604   45.8568 C.ar        1 XNC      -0.0685
     44 C27        23.4204   -4.1417   45.3574 C.ar        1 XNC      -0.0578
     45 H1         28.9345    0.8609   36.4288 H           1 XNC       0.0705
     46 H2         29.5232    1.0359   34.1041 H           1 XNC       0.0729
     47 H3         28.0814    2.2208   32.5564 H           1 XNC       0.0684
     48 H4         24.8902    3.9243   33.7381 H           1 XNC       0.0421
     49 H5         25.2458    2.8257   32.3993 H           1 XNC       0.0421
     50 H6         26.2471    4.2739   32.6563 H           1 XNC       0.0421
     51 H7         25.9029   -0.6938   36.8352 H           1 XNC       0.0382
     52 H8         26.5677   -2.9556   36.3639 H           1 XNC       0.0451
     53 H9         26.2400    2.2176   40.0907 H           1 XNC       0.0812
     54 H10        30.2437    3.8320   42.1539 H           1 XNC       0.0503
     55 H11        30.3563    5.0062   40.8349 H           1 XNC       0.0503
     56 H12        31.9238    2.6332   38.3066 H           1 XNC       0.0237
     57 H13        31.4764    4.3231   38.5995 H           1 XNC       0.0237
     58 H14        30.2257    3.1043   38.3268 H           1 XNC       0.0237
     59 H15        32.6120    3.0247   41.9893 H           1 XNC       0.0237
     60 H16        32.8875    4.2894   40.7832 H           1 XNC       0.0237
     61 H17        33.3174    2.6102   40.4234 H           1 XNC       0.0237
     62 H18        30.7549    1.3599   41.7116 H           1 XNC       0.0444
     63 H19        31.4979    0.8770   40.1979 H           1 XNC       0.0444
     64 H20        30.1193   -0.7168   40.0993 H           1 XNC       0.2009
     65 H21        29.5591   -3.3117   39.9918 H           1 XNC       0.2432
     66 H22        28.4536   -3.9355   37.5063 H           1 XNC       0.0389
     67 H23        24.0841   -2.0590   41.2672 H           1 XNC       0.0510
     68 H24        26.2060   -0.0994   44.3175 H           1 XNC       0.0491
     69 H25        27.2245    1.3429   42.7027 H           1 XNC       0.0520
     70 H26        22.5510   -1.6887   43.1917 H           1 XNC       0.0776
     71 H27        22.9685   -1.1827   44.8347 H           1 XNC       0.0776
     72 H28        20.5736   -2.9743   43.9939 H           1 XNC       0.0557
     73 H29        19.7312   -5.0609   44.8586 H           1 XNC       0.0599
     74 H30        21.2105   -6.5914   46.0238 H           1 XNC       0.0559
     75 H31        23.5425   -6.0014   46.3608 H           1 XNC       0.0599
     76 H32        24.4076   -3.9142   45.5043 H           1 XNC       0.0557
@<TRIPOS>BOND
     1     1     2   2
     2     2     3   1
     3     2    10  am
     4     3     4  ar
     5     3     9  ar
     6     4     5  ar
     7     5     6  ar
     8     6     7  ar
     9     7     8   1
    10     7     9  ar
    11    10    11   1
    12    10    14   1
    13    11    12  ar
    14    11    26  ar
    15    12    13  ar
    16    13    29  ar
    17    14    15   1
    18    14    30   1
    19    15    16   1
    20    15    24   2
    21    16    17   2
    22    16    18   2
    23    16    19   1
    24    19    20   1
    25    20    21   1
    26    20    22   1
    27    20    23   1
    28    23    24   1
    29    24    25   1
    30    25    26   1
    31    26    27  ar
    32    27    28   1
    33    27    29  ar
    34    30    31  ar
    35    30    36  ar
    36    31    32   1
    37    31    33  ar
    38    33    34  ar
    39    34    35  ar
    40    34    37   1
    41    35    36  ar
    42    37    38   1
    43    38    39   1
    44    39    40  ar
    45    39    44  ar
    46    40    41  ar
    47    41    42  ar
    48    42    43  ar
    49    43    44  ar
    50     4    45   1
    51     5    46   1
    52     6    47   1
    53     8    48   1
    54     8    49   1
    55     8    50   1
    56    12    51   1
    57    13    52   1
    58    14    53   1
    59    19    54   1
    60    19    55   1
    61    21    56   1
    62    21    57   1
    63    21    58   1
    64    22    59   1
    65    22    60   1
    66    22    61   1
    67    23    62   1
    68    23    63   1
    69    25    64   1
    70    28    65   1
    71    29    66   1
    72    33    67   1
    73    35    68   1
    74    36    69   1
    75    38    70   1
    76    38    71   1
    77    40    72   1
    78    41    73   1
    79    42    74   1
    80    43    75   1
    81    44    76   1
@<TRIPOS>SUBSTRUCTURE
     1  XNC      2

