@<TRIPOS>MOLECULE
3gnw_ligand_023
    76    81
SMALL
GAST_HUCK
****
This file was generated by PARSER (from files_GN.cpp)

@<TRIPOS>ATOM
      1 O35        38.5023    3.6045   39.2898 O.2         1 XNC      -0.3687
      2 C16        37.8498    2.5778   39.4424 C.2         1 XNC       0.2510
      3 C17        37.1888    2.1516   38.2768 C.ar        1 XNC       0.1194
      4 C43        37.7193    2.3400   36.9739 C.ar        1 XNC      -0.0209
      5 C42        37.0203    1.8591   35.8487 C.ar        1 XNC      -0.0435
      6 C41        35.7861    1.2057   36.0124 C.ar        1 XNC      -0.0287
      7 C40        35.2634    1.0531   37.3119 C.ar        1 XNC       0.0301
      8 C44        33.9897    0.3743   37.6070 C.3         1 XNC      -0.0144
      9 N39        35.9857    1.5299   38.3543 N.ar        1 XNC      -0.2781
     10 N7         37.8850    1.9600   40.6552 N.am        1 XNC      -0.2078
     11 C4         37.2595    0.7541   40.8530 C.ar        1 XNC       0.0880
     12 C3         35.8623    0.7159   41.0597 C.ar        1 XNC      -0.0607
     13 C2         35.1932   -0.5116   41.1705 C.ar        1 XNC      -0.0955
     14 C8         38.8574    2.3276   41.6906 C.3         1 XNC       0.1162
     15 C9         40.1700    1.7290   41.3553 C.2         1 XNC       0.0894
     16 S12        41.5100    2.8200   41.3608 S.o2        1 XNC      -0.0239
     17 O32        41.6921    3.4995   42.7869 O.2         1 XNC      -0.1768
     18 O33        41.2507    3.9834   40.3077 O.2         1 XNC      -0.1768
     19 C13        43.0370    1.9956   40.8785 C.3         1 XNC       0.0705
     20 C14        42.7444    0.7552   39.9801 C.3         1 XNC      -0.0050
     21 C37        42.2517    1.1714   38.5534 C.3         1 XNC      -0.0565
     22 C38        44.0748   -0.0522   39.8172 C.3         1 XNC      -0.0565
     23 C15        41.6782   -0.1381   40.7045 C.3         1 XNC       0.0036
     24 C10        40.3423    0.4422   40.9390 C.2         1 XNC       0.0422
     25 N11        39.3692   -0.4946   40.8598 N.pl3       1 XNC      -0.2908
     26 C5         38.0120   -0.4479   40.9049 C.ar        1 XNC       0.1100
     27 C6         37.3300   -1.6778   41.0737 C.ar        1 XNC       0.0976
     28 O36        38.0082   -2.8500   41.1801 O.3         1 XNC      -0.3423
     29 C1         35.9269   -1.7083   41.1740 C.ar        1 XNC      -0.0580
     30 C18        38.4221    2.1429   43.1356 C.ar        1 XNC       0.0130
     31 C23        37.8719    3.2169   43.8953 C.ar        1 XNC       0.1283
     32 F34        37.7381    4.4197   43.4020 F           1 XNC      -0.1917
     33 C22        37.4603    3.0345   45.2312 C.ar        1 XNC      -0.0061
     34 C21        37.5511    1.7719   45.8425 C.ar        1 XNC       0.0849
     35 C20        38.0383    0.6862   45.0921 C.ar        1 XNC      -0.0435
     36 C19        38.5156    0.8861   43.7892 C.ar        1 XNC      -0.0671
     37 O24        37.1779    1.6482   47.1582 O.3         1 XNC      -0.3110
     38 C25        38.1537    1.0345   48.0300 C.3         1 XNC       0.1027
     39 C26        38.1426    1.7219   49.3365 C.ar        1 XNC      -0.0131
     40 C31        38.5078    3.0862   49.3903 C.ar        1 XNC      -0.0578
     41 C30        38.5618    3.7634   50.6201 C.ar        1 XNC      -0.0685
     42 C29        38.2543    3.0820   51.8108 C.ar        1 XNC      -0.0687
     43 C28        37.8891    1.7240   51.7717 C.ar        1 XNC      -0.0685
     44 C27        37.8288    1.0459   50.5392 C.ar        1 XNC      -0.0578
     45 H1         38.6241    2.7995   36.8342 H           1 XNC       0.0705
     46 H2         37.4159    1.9730   34.9130 H           1 XNC       0.0729
     47 H3         35.2884    0.8407   35.1945 H           1 XNC       0.0684
     48 H4         33.3172    1.0653   38.1192 H           1 XNC       0.0421
     49 H5         34.1854   -0.4769   38.2599 H           1 XNC       0.0421
     50 H6         33.4961    0.0122   36.7035 H           1 XNC       0.0421
     51 H7         35.3221    1.5855   41.0773 H           1 XNC       0.0382
     52 H8         34.1753   -0.5300   41.2506 H           1 XNC       0.0451
     53 H9         38.9763    3.4104   41.6049 H           1 XNC       0.0812
     54 H10        43.5386    1.6849   41.7975 H           1 XNC       0.0503
     55 H11        43.6861    2.7108   40.3684 H           1 XNC       0.0503
     56 H12        42.0677    0.2874   37.9379 H           1 XNC       0.0237
     57 H13        42.9996    1.7877   38.0503 H           1 XNC       0.0237
     58 H14        41.3232    1.7413   38.5992 H           1 XNC       0.0237
     59 H15        44.4511   -0.3862   40.7871 H           1 XNC       0.0237
     60 H16        44.8475    0.5627   39.3489 H           1 XNC       0.0237
     61 H17        43.9215   -0.9360   39.1942 H           1 XNC       0.0237
     62 H18        42.0676   -0.4311   41.6845 H           1 XNC       0.0444
     63 H19        41.5919   -1.0641   40.1231 H           1 XNC       0.0444
     64 H20        39.7131   -1.4009   40.8054 H           1 XNC       0.2009
     65 H21        37.8920   -3.1441   42.1116 H           1 XNC       0.2432
     66 H22        35.4411   -2.6021   41.2741 H           1 XNC       0.0389
     67 H23        37.0922    3.8256   45.7663 H           1 XNC       0.0510
     68 H24        38.0776   -0.2466   45.5092 H           1 XNC       0.0491
     69 H25        38.9436    0.0867   43.3363 H           1 XNC       0.0520
     70 H26        39.1779    1.0943   47.6376 H           1 XNC       0.0776
     71 H27        37.9003   -0.0214   48.1328 H           1 XNC       0.0776
     72 H28        38.7494    3.5913   48.5335 H           1 XNC       0.0557
     73 H29        38.8360    4.7470   50.6457 H           1 XNC       0.0599
     74 H30        38.3047    3.5752   52.7035 H           1 XNC       0.0559
     75 H31        37.6764    1.2277   52.6405 H           1 XNC       0.0599
     76 H32        37.5686    0.0552   50.5269 H           1 XNC       0.0557
@<TRIPOS>BOND
     1     1     2   2
     2     2     3   1
     3     2    10  am
     4     3     4  ar
     5     3     9  ar
     6     4     5  ar
     7     5     6  ar
     8     6     7  ar
     9     7     8   1
    10     7     9  ar
    11    10    11   1
    12    10    14   1
    13    11    12  ar
    14    11    26  ar
    15    12    13  ar
    16    13    29  ar
    17    14    15   1
    18    14    30   1
    19    15    16   1
    20    15    24   2
    21    16    17   2
    22    16    18   2
    23    16    19   1
    24    19    20   1
    25    20    21   1
    26    20    22   1
    27    20    23   1
    28    23    24   1
    29    24    25   1
    30    25    26   1
    31    26    27  ar
    32    27    28   1
    33    27    29  ar
    34    30    31  ar
    35    30    36  ar
    36    31    32   1
    37    31    33  ar
    38    33    34  ar
    39    34    35  ar
    40    34    37   1
    41    35    36  ar
    42    37    38   1
    43    38    39   1
    44    39    40  ar
    45    39    44  ar
    46    40    41  ar
    47    41    42  ar
    48    42    43  ar
    49    43    44  ar
    50     4    45   1
    51     5    46   1
    52     6    47   1
    53     8    48   1
    54     8    49   1
    55     8    50   1
    56    12    51   1
    57    13    52   1
    58    14    53   1
    59    19    54   1
    60    19    55   1
    61    21    56   1
    62    21    57   1
    63    21    58   1
    64    22    59   1
    65    22    60   1
    66    22    61   1
    67    23    62   1
    68    23    63   1
    69    25    64   1
    70    28    65   1
    71    29    66   1
    72    33    67   1
    73    35    68   1
    74    36    69   1
    75    38    70   1
    76    38    71   1
    77    40    72   1
    78    41    73   1
    79    42    74   1
    80    43    75   1
    81    44    76   1
@<TRIPOS>SUBSTRUCTURE
     1  XNC      2

