@<TRIPOS>MOLECULE
3gnw_ligand_004
    76    81
SMALL
GAST_HUCK
****
This file was generated by PARSER (from files_GN.cpp)

@<TRIPOS>ATOM
      1 O35        26.7598    4.0567   37.6708 O.2         1 XNC      -0.3687
      2 C16        26.8958    2.8463   37.8125 C.2         1 XNC       0.2510
      3 C17        26.6557    2.1301   36.6490 C.ar        1 XNC       0.1194
      4 C43        25.3404    1.8736   36.1868 C.ar        1 XNC      -0.0209
      5 C42        25.1746    1.1057   35.0247 C.ar        1 XNC      -0.0435
      6 C41        26.2935    0.6349   34.3193 C.ar        1 XNC      -0.0287
      7 C40        27.5911    0.9464   34.7890 C.ar        1 XNC       0.0301
      8 C44        28.7963    0.5431   34.0438 C.3         1 XNC      -0.0144
      9 N39        27.7110    1.6608   35.9424 N.ar        1 XNC      -0.2781
     10 N7         27.3507    2.3014   38.9641 N.am        1 XNC      -0.2078
     11 C4         27.3129    0.9361   39.1488 C.ar        1 XNC       0.0880
     12 C3         26.0673    0.2662   39.0796 C.ar        1 XNC      -0.0607
     13 C2         25.9851   -1.1258   39.2149 C.ar        1 XNC      -0.0955
     14 C8         27.9521    3.0978   40.0356 C.3         1 XNC       0.1162
     15 C9         29.4212    3.1120   39.8992 C.2         1 XNC       0.0894
     16 S12        30.1645    4.6453   40.1988 S.o2        1 XNC      -0.0239
     17 O32        29.7977    5.1277   41.6621 O.2         1 XNC      -0.1768
     18 O33        29.6176    5.7289   39.1695 O.2         1 XNC      -0.1768
     19 C13        31.9588    4.5515   40.0266 C.3         1 XNC       0.0705
     20 C14        32.4725    3.0963   40.2432 C.3         1 XNC      -0.0050
     21 C37        33.9778    3.0517   39.8142 C.3         1 XNC      -0.0565
     22 C38        32.3840    2.6735   41.7474 C.3         1 XNC      -0.0565
     23 C15        31.6300    2.1312   39.3350 C.3         1 XNC       0.0036
     24 C10        30.1820    2.0211   39.6043 C.2         1 XNC       0.0422
     25 N11        29.7291    0.7521   39.5170 N.pl3       1 XNC      -0.2908
     26 C5         28.4941    0.1903   39.3934 C.ar        1 XNC       0.1100
     27 C6         28.4038   -1.2227   39.5129 C.ar        1 XNC       0.0976
     28 O36        29.4916   -2.0190   39.7086 O.3         1 XNC      -0.3423
     29 C1         27.1567   -1.8693   39.4284 C.ar        1 XNC      -0.0580
     30 C18        27.4292    2.8463   41.4397 C.ar        1 XNC       0.0130
     31 C23        26.4438    3.6876   42.0344 C.ar        1 XNC       0.1283
     32 F34        25.9529    4.7247   41.4109 F           1 XNC      -0.1917
     33 C22        25.9566    3.4418   43.3296 C.ar        1 XNC      -0.0061
     34 C21        26.4203    2.3461   44.0897 C.ar        1 XNC       0.0849
     35 C20        27.3782    1.4947   43.5029 C.ar        1 XNC      -0.0435
     36 C19        27.8897    1.7577   42.2191 C.ar        1 XNC      -0.0671
     37 O24        25.9243    2.2559   45.3714 O.3         1 XNC      -0.3110
     38 C25        26.4327    1.3326   46.3586 C.3         1 XNC       0.1027
     39 C26        27.8960    1.4094   46.6224 C.ar        1 XNC      -0.0131
     40 C31        28.5523    2.6571   46.7082 C.ar        1 XNC      -0.0578
     41 C30        29.9435    2.7244   46.9121 C.ar        1 XNC      -0.0685
     42 C29        30.6937    1.5434   47.0390 C.ar        1 XNC      -0.0687
     43 C28        30.0558    0.2968   46.9707 C.ar        1 XNC      -0.0685
     44 C27        28.6661    0.2274   46.7646 C.ar        1 XNC      -0.0578
     45 H1         24.5254    2.2120   36.7026 H           1 XNC       0.0705
     46 H2         24.2317    0.8817   34.6920 H           1 XNC       0.0729
     47 H3         26.1653    0.0783   33.4734 H           1 XNC       0.0684
     48 H4         29.7033    0.8489   34.5679 H           1 XNC       0.0421
     49 H5         28.7965    1.0167   33.0613 H           1 XNC       0.0421
     50 H6         28.8174   -0.5392   33.9162 H           1 XNC       0.0421
     51 H7         25.2075    0.7916   38.9023 H           1 XNC       0.0382
     52 H8         25.0818   -1.5993   39.1383 H           1 XNC       0.0451
     53 H9         27.6548    4.1266   39.8437 H           1 XNC       0.0812
     54 H10        32.4189    5.2485   40.7310 H           1 XNC       0.0503
     55 H11        32.1985    4.8863   39.0141 H           1 XNC       0.0503
     56 H12        34.3964    2.0527   39.9553 H           1 XNC       0.0237
     57 H13        34.5673    3.7547   40.4082 H           1 XNC       0.0237
     58 H14        34.0936    3.3198   38.7611 H           1 XNC       0.0237
     59 H15        31.3560    2.6934   42.1163 H           1 XNC       0.0237
     60 H16        32.9761    3.3491   42.3705 H           1 XNC       0.0237
     61 H17        32.7684    1.6593   41.8793 H           1 XNC       0.0237
     62 H18        32.1054    1.1452   39.3796 H           1 XNC       0.0444
     63 H19        31.7246    2.4626   38.2963 H           1 XNC       0.0444
     64 H20        30.4338    0.0937   39.6078 H           1 XNC       0.2009
     65 H21        30.0371   -1.5901   40.4013 H           1 XNC       0.2432
     66 H22        27.0960   -2.8857   39.5109 H           1 XNC       0.0389
     67 H23        25.2531    4.0700   43.7385 H           1 XNC       0.0510
     68 H24        27.7384    0.6880   44.0124 H           1 XNC       0.0491
     69 H25        28.6244    1.1432   41.8756 H           1 XNC       0.0520
     70 H26        26.1248    0.3262   46.0676 H           1 XNC       0.0776
     71 H27        25.9237    1.5645   47.2933 H           1 XNC       0.0776
     72 H28        28.0273    3.5273   46.6006 H           1 XNC       0.0557
     73 H29        30.4099    3.6339   46.9485 H           1 XNC       0.0599
     74 H30        31.7060    1.5959   47.1833 H           1 XNC       0.0559
     75 H31        30.5988   -0.5652   47.0753 H           1 XNC       0.0599
     76 H32        28.2143   -0.6892   46.7312 H           1 XNC       0.0557
@<TRIPOS>BOND
     1     1     2   2
     2     2     3   1
     3     2    10  am
     4     3     4  ar
     5     3     9  ar
     6     4     5  ar
     7     5     6  ar
     8     6     7  ar
     9     7     8   1
    10     7     9  ar
    11    10    11   1
    12    10    14   1
    13    11    12  ar
    14    11    26  ar
    15    12    13  ar
    16    13    29  ar
    17    14    15   1
    18    14    30   1
    19    15    16   1
    20    15    24   2
    21    16    17   2
    22    16    18   2
    23    16    19   1
    24    19    20   1
    25    20    21   1
    26    20    22   1
    27    20    23   1
    28    23    24   1
    29    24    25   1
    30    25    26   1
    31    26    27  ar
    32    27    28   1
    33    27    29  ar
    34    30    31  ar
    35    30    36  ar
    36    31    32   1
    37    31    33  ar
    38    33    34  ar
    39    34    35  ar
    40    34    37   1
    41    35    36  ar
    42    37    38   1
    43    38    39   1
    44    39    40  ar
    45    39    44  ar
    46    40    41  ar
    47    41    42  ar
    48    42    43  ar
    49    43    44  ar
    50     4    45   1
    51     5    46   1
    52     6    47   1
    53     8    48   1
    54     8    49   1
    55     8    50   1
    56    12    51   1
    57    13    52   1
    58    14    53   1
    59    19    54   1
    60    19    55   1
    61    21    56   1
    62    21    57   1
    63    21    58   1
    64    22    59   1
    65    22    60   1
    66    22    61   1
    67    23    62   1
    68    23    63   1
    69    25    64   1
    70    28    65   1
    71    29    66   1
    72    33    67   1
    73    35    68   1
    74    36    69   1
    75    38    70   1
    76    38    71   1
    77    40    72   1
    78    41    73   1
    79    42    74   1
    80    43    75   1
    81    44    76   1
@<TRIPOS>SUBSTRUCTURE
     1  XNC      2

