@<TRIPOS>MOLECULE
3gnw_ligand_072
    76    81
SMALL
GAST_HUCK
****
This file was generated by PARSER (from files_GN.cpp)

@<TRIPOS>ATOM
      1 O35        30.1970    0.8511   37.7214 O.2         1 XNC      -0.3687
      2 C16        29.0735    1.2190   37.3968 C.2         1 XNC       0.2510
      3 C17        29.0257    1.6360   36.0726 C.ar        1 XNC       0.1194
      4 C43        28.8031    2.9761   35.6806 C.ar        1 XNC      -0.0209
      5 C42        28.8767    3.3216   34.3174 C.ar        1 XNC      -0.0435
      6 C41        29.2522    2.3553   33.3660 C.ar        1 XNC      -0.0287
      7 C40        29.5679    1.0447   33.7933 C.ar        1 XNC       0.0301
      8 C44        30.1176    0.0483   32.8516 C.3         1 XNC      -0.0144
      9 N39        29.4239    0.7493   35.1136 N.ar        1 XNC      -0.2781
     10 N7         28.0256    1.0203   38.2370 N.am        1 XNC      -0.2078
     11 C4         26.7557    1.4693   37.9310 C.ar        1 XNC       0.0880
     12 C3         26.5260    2.8604   37.7814 C.ar        1 XNC      -0.0607
     13 C2         25.2600    3.3547   37.4347 C.ar        1 XNC      -0.0955
     14 C8         28.1548    0.2183   39.4630 C.3         1 XNC       0.1162
     15 C9         27.8542   -1.1912   39.1317 C.2         1 XNC       0.0894
     16 S12        28.9878   -2.3703   39.6861 S.o2        1 XNC      -0.0239
     17 O32        29.0651   -2.3086   41.2740 O.2         1 XNC      -0.1768
     18 O33        30.4471   -2.0655   39.1308 O.2         1 XNC      -0.1768
     19 C13        28.5045   -4.0356   39.1933 C.3         1 XNC       0.0705
     20 C14        26.9568   -4.1545   39.0444 C.3         1 XNC      -0.0050
     21 C37        26.6252   -5.5221   38.3609 C.3         1 XNC      -0.0565
     22 C38        26.2426   -4.1379   40.4354 C.3         1 XNC      -0.0565
     23 C15        26.4495   -2.9865   38.1225 C.3         1 XNC       0.0036
     24 C10        26.7044   -1.5899   38.5283 C.2         1 XNC       0.0422
     25 N11        25.7071   -0.7532   38.1717 N.pl3       1 XNC      -0.2908
     26 C5         25.6399    0.5822   37.9200 C.ar        1 XNC       0.1100
     27 C6         24.3581    1.1050   37.6219 C.ar        1 XNC       0.0976
     28 O36        23.2588    0.3090   37.6545 O.3         1 XNC      -0.3423
     29 C1         24.1716    2.4712   37.3446 C.ar        1 XNC      -0.0580
     30 C18        27.4609    0.7960   40.6758 C.ar        1 XNC       0.0130
     31 C23        27.7628    2.1269   41.0736 C.ar        1 XNC       0.1283
     32 F34        28.6150    2.8667   40.4098 F           1 XNC      -0.1917
     33 C22        27.1672    2.7002   42.2126 C.ar        1 XNC      -0.0061
     34 C21        26.2784    1.9572   43.0087 C.ar        1 XNC       0.0849
     35 C20        25.9628    0.6373   42.6277 C.ar        1 XNC      -0.0435
     36 C19        26.5500    0.0688   41.4857 C.ar        1 XNC      -0.0671
     37 O24        25.7252    2.5847   44.0983 O.3         1 XNC      -0.3110
     38 C25        25.9307    1.9878   45.3949 C.3         1 XNC       0.1027
     39 C26        27.3555    1.8929   45.8143 C.ar        1 XNC      -0.0131
     40 C31        28.1557    3.0554   45.8947 C.ar        1 XNC      -0.0578
     41 C30        29.4981    2.9738   46.3138 C.ar        1 XNC      -0.0685
     42 C29        30.0536    1.7270   46.6544 C.ar        1 XNC      -0.0687
     43 C28        29.2711    0.5629   46.5689 C.ar        1 XNC      -0.0685
     44 C27        27.9319    0.6445   46.1446 C.ar        1 XNC      -0.0578
     45 H1         28.6094    3.7196   36.3556 H           1 XNC       0.0705
     46 H2         28.6890    4.2847   34.0261 H           1 XNC       0.0729
     47 H3         29.3379    2.6187   32.3836 H           1 XNC       0.0684
     48 H4         30.3135   -0.9068   33.3502 H           1 XNC       0.0421
     49 H5         31.0573    0.4178   32.4411 H           1 XNC       0.0421
     50 H6         29.4221   -0.1260   32.0329 H           1 XNC       0.0421
     51 H7         27.2897    3.5218   37.9365 H           1 XNC       0.0382
     52 H8         25.1222    4.3545   37.2797 H           1 XNC       0.0451
     53 H9         29.1956    0.2577   39.7891 H           1 XNC       0.0812
     54 H10        28.8909   -4.7513   39.9232 H           1 XNC       0.0503
     55 H11        28.9912   -4.2417   38.2368 H           1 XNC       0.0503
     56 H12        25.5449   -5.6485   38.2454 H           1 XNC       0.0237
     57 H13        27.0021   -6.3572   38.9576 H           1 XNC       0.0237
     58 H14        27.0775   -5.5862   37.3673 H           1 XNC       0.0237
     59 H15        26.4466   -3.2191   40.9789 H           1 XNC       0.0237
     60 H16        26.5829   -4.9732   41.0539 H           1 XNC       0.0237
     61 H17        25.1596   -4.2230   40.3132 H           1 XNC       0.0237
     62 H18        25.3774   -3.1486   37.9596 H           1 XNC       0.0444
     63 H19        26.9187   -3.0961   37.1397 H           1 XNC       0.0444
     64 H20        24.8641   -1.2113   38.0253 H           1 XNC       0.2009
     65 H21        22.9962    0.3645   38.5997 H           1 XNC       0.2432
     66 H22        23.2404    2.8301   37.1157 H           1 XNC       0.0389
     67 H23        27.3933    3.6633   42.4712 H           1 XNC       0.0510
     68 H24        25.3114    0.0773   43.1827 H           1 XNC       0.0491
     69 H25        26.3081   -0.8987   41.2687 H           1 XNC       0.0520
     70 H26        25.4372    1.0120   45.4225 H           1 XNC       0.0776
     71 H27        25.4100    2.6117   46.1227 H           1 XNC       0.0776
     72 H28        27.7684    3.9681   45.6460 H           1 XNC       0.0557
     73 H29        30.0713    3.8185   46.3608 H           1 XNC       0.0599
     74 H30        31.0305    1.6656   46.9496 H           1 XNC       0.0559
     75 H31        29.6747   -0.3444   46.8114 H           1 XNC       0.0599
     76 H32        27.3791   -0.2122   46.0837 H           1 XNC       0.0557
@<TRIPOS>BOND
     1     1     2   2
     2     2     3   1
     3     2    10  am
     4     3     4  ar
     5     3     9  ar
     6     4     5  ar
     7     5     6  ar
     8     6     7  ar
     9     7     8   1
    10     7     9  ar
    11    10    11   1
    12    10    14   1
    13    11    12  ar
    14    11    26  ar
    15    12    13  ar
    16    13    29  ar
    17    14    15   1
    18    14    30   1
    19    15    16   1
    20    15    24   2
    21    16    17   2
    22    16    18   2
    23    16    19   1
    24    19    20   1
    25    20    21   1
    26    20    22   1
    27    20    23   1
    28    23    24   1
    29    24    25   1
    30    25    26   1
    31    26    27  ar
    32    27    28   1
    33    27    29  ar
    34    30    31  ar
    35    30    36  ar
    36    31    32   1
    37    31    33  ar
    38    33    34  ar
    39    34    35  ar
    40    34    37   1
    41    35    36  ar
    42    37    38   1
    43    38    39   1
    44    39    40  ar
    45    39    44  ar
    46    40    41  ar
    47    41    42  ar
    48    42    43  ar
    49    43    44  ar
    50     4    45   1
    51     5    46   1
    52     6    47   1
    53     8    48   1
    54     8    49   1
    55     8    50   1
    56    12    51   1
    57    13    52   1
    58    14    53   1
    59    19    54   1
    60    19    55   1
    61    21    56   1
    62    21    57   1
    63    21    58   1
    64    22    59   1
    65    22    60   1
    66    22    61   1
    67    23    62   1
    68    23    63   1
    69    25    64   1
    70    28    65   1
    71    29    66   1
    72    33    67   1
    73    35    68   1
    74    36    69   1
    75    38    70   1
    76    38    71   1
    77    40    72   1
    78    41    73   1
    79    42    74   1
    80    43    75   1
    81    44    76   1
@<TRIPOS>SUBSTRUCTURE
     1  XNC      2

