@<TRIPOS>MOLECULE
3gnw_ligand_026
    76    81
SMALL
GAST_HUCK
****
This file was generated by PARSER (from files_GN.cpp)

@<TRIPOS>ATOM
      1 O35        40.8652    4.4056   43.0695 O.2         1 XNC      -0.3687
      2 C16        39.7187    4.7955   43.2552 C.2         1 XNC       0.2510
      3 C17        39.3944    5.9912   42.6236 C.ar        1 XNC       0.1194
      4 C43        40.0941    7.1953   42.8518 C.ar        1 XNC      -0.0209
      5 C42        39.7089    8.3573   42.1569 C.ar        1 XNC      -0.0435
      6 C41        38.6669    8.3004   41.2143 C.ar        1 XNC      -0.0287
      7 C40        37.9998    7.0776   40.9944 C.ar        1 XNC       0.0301
      8 C44        36.9120    6.9552   40.0080 C.3         1 XNC      -0.0144
      9 N39        38.3864    5.9880   41.7122 N.ar        1 XNC      -0.2781
     10 N7         38.8161    4.0205   43.8923 N.am        1 XNC      -0.2078
     11 C4         37.6769    4.5720   44.4642 C.ar        1 XNC       0.0880
     12 C3         37.8171    5.6607   45.3623 C.ar        1 XNC      -0.0607
     13 C2         36.7096    6.2087   46.0236 C.ar        1 XNC      -0.0955
     14 C8         38.9756    2.5668   43.9773 C.3         1 XNC       0.1162
     15 C9         38.2440    2.0353   42.8075 C.2         1 XNC       0.0894
     16 S12        39.1838    1.2431   41.5960 S.o2        1 XNC      -0.0239
     17 O32        39.8983   -0.0463   42.1889 O.2         1 XNC      -0.1768
     18 O33        40.3116    2.2372   41.0774 O.2         1 XNC      -0.1768
     19 C13        38.1749    0.7722   40.1779 C.3         1 XNC       0.0705
     20 C14        36.8722    1.6256   40.0820 C.3         1 XNC      -0.0050
     21 C37        37.1825    3.0850   39.6097 C.3         1 XNC      -0.0565
     22 C38        35.9249    0.9677   39.0233 C.3         1 XNC      -0.0565
     23 C15        36.1809    1.6104   41.4916 C.3         1 XNC       0.0036
     24 C10        36.9197    2.2504   42.5965 C.2         1 XNC       0.0422
     25 N11        36.1301    2.9961   43.3910 N.pl3       1 XNC      -0.2908
     26 C5         36.3864    4.0209   44.2474 C.ar        1 XNC       0.1100
     27 C6         35.2716    4.5914   44.9128 C.ar        1 XNC       0.0976
     28 O36        34.0194    4.1079   44.7113 O.3         1 XNC      -0.3423
     29 C1         35.4360    5.6686   45.8044 C.ar        1 XNC      -0.0580
     30 C18        38.6788    1.9502   45.3279 C.ar        1 XNC       0.0130
     31 C23        39.0059    2.6332   46.5318 C.ar        1 XNC       0.1283
     32 F34        39.5772    3.8090   46.5098 F           1 XNC      -0.1917
     33 C22        38.7319    2.0740   47.7933 C.ar        1 XNC      -0.0061
     34 C21        38.1487    0.7884   47.9088 C.ar        1 XNC       0.0849
     35 C20        37.8896    0.0786   46.7184 C.ar        1 XNC      -0.0435
     36 C19        38.1501    0.6430   45.4574 C.ar        1 XNC      -0.0671
     37 O24        37.8705    0.0848   49.0606 O.3         1 XNC      -0.3110
     38 C25        38.1440    0.5155   50.4090 C.3         1 XNC       0.1027
     39 C26        36.8965    0.9019   51.1095 C.ar        1 XNC      -0.0131
     40 C31        36.5526    0.3287   52.3576 C.ar        1 XNC      -0.0578
     41 C30        35.3685    0.7098   53.0182 C.ar        1 XNC      -0.0685
     42 C29        34.5377    1.6956   52.4576 C.ar        1 XNC      -0.0687
     43 C28        34.8838    2.2951   51.2344 C.ar        1 XNC      -0.0685
     44 C27        36.0517    1.8922   50.5555 C.ar        1 XNC      -0.0578
     45 H1         40.8588    7.2352   43.5280 H           1 XNC       0.0705
     46 H2         40.1930    9.2408   42.3332 H           1 XNC       0.0729
     47 H3         38.3943    9.1431   40.7036 H           1 XNC       0.0684
     48 H4         36.5105    5.9415   39.9902 H           1 XNC       0.0421
     49 H5         37.2874    7.1967   39.0122 H           1 XNC       0.0421
     50 H6         36.1047    7.6423   40.2641 H           1 XNC       0.0421
     51 H7         38.7447    6.0487   45.5575 H           1 XNC       0.0382
     52 H8         36.8319    6.9936   46.6686 H           1 XNC       0.0451
     53 H9         40.0347    2.3147   43.8726 H           1 XNC       0.0812
     54 H10        37.9222   -0.2844   40.2957 H           1 XNC       0.0503
     55 H11        38.7748    0.8711   39.2730 H           1 XNC       0.0503
     56 H12        36.2616    3.6675   39.5429 H           1 XNC       0.0237
     57 H13        37.6558    3.0815   38.6254 H           1 XNC       0.0237
     58 H14        37.8542    3.5941   40.3006 H           1 XNC       0.0237
     59 H15        35.6449   -0.0453   39.3214 H           1 XNC       0.0237
     60 H16        36.4140    0.9082   38.0478 H           1 XNC       0.0237
     61 H17        35.0066    1.5482   38.9061 H           1 XNC       0.0237
     62 H18        35.9992    0.5721   41.7887 H           1 XNC       0.0444
     63 H19        35.1914    2.0682   41.3748 H           1 XNC       0.0444
     64 H20        35.1841    2.8267   43.2659 H           1 XNC       0.2009
     65 H21        33.4970    4.8654   44.3694 H           1 XNC       0.2432
     66 H22        34.6308    6.0621   46.2959 H           1 XNC       0.0389
     67 H23        38.9805    2.6127   48.6202 H           1 XNC       0.0510
     68 H24        37.5069   -0.8726   46.7630 H           1 XNC       0.0491
     69 H25        37.9625    0.0710   44.6315 H           1 XNC       0.0520
     70 H26        38.8581    1.3330   50.4988 H           1 XNC       0.0776
     71 H27        38.6002   -0.3492   50.8969 H           1 XNC       0.0776
     72 H28        37.1517   -0.3819   52.7899 H           1 XNC       0.0557
     73 H29        35.1165    0.2587   53.9000 H           1 XNC       0.0599
     74 H30        33.6855    1.9789   52.9441 H           1 XNC       0.0559
     75 H31        34.2830    3.0149   50.8291 H           1 XNC       0.0599
     76 H32        36.2881    2.3345   49.6630 H           1 XNC       0.0557
@<TRIPOS>BOND
     1     1     2   2
     2     2     3   1
     3     2    10  am
     4     3     4  ar
     5     3     9  ar
     6     4     5  ar
     7     5     6  ar
     8     6     7  ar
     9     7     8   1
    10     7     9  ar
    11    10    11   1
    12    10    14   1
    13    11    12  ar
    14    11    26  ar
    15    12    13  ar
    16    13    29  ar
    17    14    15   1
    18    14    30   1
    19    15    16   1
    20    15    24   2
    21    16    17   2
    22    16    18   2
    23    16    19   1
    24    19    20   1
    25    20    21   1
    26    20    22   1
    27    20    23   1
    28    23    24   1
    29    24    25   1
    30    25    26   1
    31    26    27  ar
    32    27    28   1
    33    27    29  ar
    34    30    31  ar
    35    30    36  ar
    36    31    32   1
    37    31    33  ar
    38    33    34  ar
    39    34    35  ar
    40    34    37   1
    41    35    36  ar
    42    37    38   1
    43    38    39   1
    44    39    40  ar
    45    39    44  ar
    46    40    41  ar
    47    41    42  ar
    48    42    43  ar
    49    43    44  ar
    50     4    45   1
    51     5    46   1
    52     6    47   1
    53     8    48   1
    54     8    49   1
    55     8    50   1
    56    12    51   1
    57    13    52   1
    58    14    53   1
    59    19    54   1
    60    19    55   1
    61    21    56   1
    62    21    57   1
    63    21    58   1
    64    22    59   1
    65    22    60   1
    66    22    61   1
    67    23    62   1
    68    23    63   1
    69    25    64   1
    70    28    65   1
    71    29    66   1
    72    33    67   1
    73    35    68   1
    74    36    69   1
    75    38    70   1
    76    38    71   1
    77    40    72   1
    78    41    73   1
    79    42    74   1
    80    43    75   1
    81    44    76   1
@<TRIPOS>SUBSTRUCTURE
     1  XNC      2

