@<TRIPOS>MOLECULE
3gnw_ligand_020
    76    81
SMALL
GAST_HUCK
****
This file was generated by PARSER (from files_GN.cpp)

@<TRIPOS>ATOM
      1 O35        35.8133    4.0293   40.6998 O.2         1 XNC      -0.3687
      2 C16        36.1132    2.8441   40.6237 C.2         1 XNC       0.2510
      3 C17        35.8504    2.2952   39.3824 C.ar        1 XNC       0.1194
      4 C43        36.8682    2.1306   38.4192 C.ar        1 XNC      -0.0209
      5 C42        36.5464    1.5521   37.1772 C.ar        1 XNC      -0.0435
      6 C41        35.2304    1.1297   36.9160 C.ar        1 XNC      -0.0287
      7 C40        34.2391    1.3048   37.9077 C.ar        1 XNC       0.0301
      8 C44        32.8454    0.8647   37.7307 C.3         1 XNC      -0.0144
      9 N39        34.5895    1.8825   39.0897 N.ar        1 XNC      -0.2781
     10 N7         36.7571    2.2040   41.6307 N.am        1 XNC      -0.2078
     11 C4         37.0384    0.8668   41.5254 C.ar        1 XNC       0.0880
     12 C3         35.9856   -0.0801   41.5378 C.ar        1 XNC      -0.0607
     13 C2         36.2549   -1.4483   41.3941 C.ar        1 XNC      -0.0955
     14 C8         37.3497    2.9164   42.7622 C.3         1 XNC       0.1162
     15 C9         38.7132    3.3514   42.4050 C.2         1 XNC       0.0894
     16 S12        39.0556    5.0222   42.6955 S.o2        1 XNC      -0.0239
     17 O32        38.8554    5.3700   44.2358 O.2         1 XNC      -0.1768
     18 O33        38.0390    5.9182   41.8587 O.2         1 XNC      -0.1768
     19 C13        40.7195    5.4544   42.1698 C.3         1 XNC       0.0705
     20 C14        41.2169    4.4900   41.0517 C.3         1 XNC      -0.0050
     21 C37        40.4701    4.7346   39.6977 C.3         1 XNC      -0.0565
     22 C38        42.7418    4.7542   40.8165 C.3         1 XNC      -0.0565
     23 C15        41.0125    3.0147   41.5477 C.3         1 XNC       0.0036
     24 C10        39.6291    2.5609   41.7832 C.2         1 XNC       0.0422
     25 N11        39.4577    1.2548   41.4684 N.pl3       1 XNC      -0.2908
     26 C5         38.3806    0.4285   41.4027 C.ar        1 XNC       0.1100
     27 C6         38.6334   -0.9573   41.2490 C.ar        1 XNC       0.0976
     28 O36        39.9000   -1.4318   41.1947 O.3         1 XNC      -0.3423
     29 C1         37.5778   -1.8892   41.2479 C.ar        1 XNC      -0.0580
     30 C18        37.2185    2.2592   44.1286 C.ar        1 XNC       0.0130
     31 C23        36.2677    2.7190   45.0814 C.ar        1 XNC       0.1283
     32 F34        35.4498    3.7067   44.8202 F           1 XNC      -0.1917
     33 C22        36.1298    2.1032   46.3382 C.ar        1 XNC      -0.0061
     34 C21        36.9465    1.0166   46.7009 C.ar        1 XNC       0.0849
     35 C20        37.8886    0.5387   45.7716 C.ar        1 XNC      -0.0435
     36 C19        38.0341    1.1628   44.5197 C.ar        1 XNC      -0.0671
     37 O24        36.7884    0.3666   47.8961 O.3         1 XNC      -0.3110
     38 C25        37.6495    0.7948   48.9803 C.3         1 XNC       0.1027
     39 C26        37.1032    1.8612   49.8648 C.ar        1 XNC      -0.0131
     40 C31        37.9119    2.3880   50.9019 C.ar        1 XNC      -0.0578
     41 C30        37.4327    3.4011   51.7523 C.ar        1 XNC      -0.0685
     42 C29        36.1329    3.9079   51.5751 C.ar        1 XNC      -0.0687
     43 C28        35.3060    3.3773   50.5715 C.ar        1 XNC      -0.0685
     44 C27        35.7825    2.3569   49.7269 C.ar        1 XNC      -0.0578
     45 H1         37.8294    2.4311   38.6042 H           1 XNC       0.0705
     46 H2         37.2710    1.4355   36.4631 H           1 XNC       0.0729
     47 H3         35.0047    0.7007   36.0136 H           1 XNC       0.0684
     48 H4         32.1767    1.7201   37.8475 H           1 XNC       0.0421
     49 H5         32.6039    0.1169   38.4904 H           1 XNC       0.0421
     50 H6         32.6794    0.4239   36.7441 H           1 XNC       0.0421
     51 H7         35.0149    0.2269   41.6475 H           1 XNC       0.0382
     52 H8         35.4951   -2.1289   41.3973 H           1 XNC       0.0451
     53 H9         36.7636    3.8302   42.8692 H           1 XNC       0.0812
     54 H10        41.3628    5.3761   43.0488 H           1 XNC       0.0503
     55 H11        40.7327    6.4941   41.8360 H           1 XNC       0.0503
     56 H12        40.8478    4.0645   38.9235 H           1 XNC       0.0237
     57 H13        40.6129    5.7626   39.3596 H           1 XNC       0.0237
     58 H14        39.3975    4.5597   39.7910 H           1 XNC       0.0237
     59 H15        43.3148    4.5712   41.7284 H           1 XNC       0.0237
     60 H16        42.9089    5.7895   40.5124 H           1 XNC       0.0237
     61 H17        43.1345    4.1013   40.0339 H           1 XNC       0.0237
     62 H18        41.5470    2.8811   42.4936 H           1 XNC       0.0444
     63 H19        41.5046    2.3580   40.8227 H           1 XNC       0.0444
     64 H20        40.2912    0.7982   41.2845 H           1 XNC       0.2009
     65 H21        40.0839   -1.5734   40.2375 H           1 XNC       0.2432
     66 H22        37.7793   -2.8873   41.1601 H           1 XNC       0.0389
     67 H23        35.4197    2.4421   46.9873 H           1 XNC       0.0510
     68 H24        38.4795   -0.2612   46.0153 H           1 XNC       0.0491
     69 H25        38.7541    0.7848   43.9026 H           1 XNC       0.0520
     70 H26        38.6375    1.1040   48.6160 H           1 XNC       0.0776
     71 H27        37.8096   -0.0863   49.6089 H           1 XNC       0.0776
     72 H28        38.8623    2.0408   51.0420 H           1 XNC       0.0557
     73 H29        38.0294    3.7781   52.4925 H           1 XNC       0.0599
     74 H30        35.7851    4.6562   52.1809 H           1 XNC       0.0559
     75 H31        34.3528    3.7367   50.4495 H           1 XNC       0.0599
     76 H32        35.1499    1.9717   49.0213 H           1 XNC       0.0557
@<TRIPOS>BOND
     1     1     2   2
     2     2     3   1
     3     2    10  am
     4     3     4  ar
     5     3     9  ar
     6     4     5  ar
     7     5     6  ar
     8     6     7  ar
     9     7     8   1
    10     7     9  ar
    11    10    11   1
    12    10    14   1
    13    11    12  ar
    14    11    26  ar
    15    12    13  ar
    16    13    29  ar
    17    14    15   1
    18    14    30   1
    19    15    16   1
    20    15    24   2
    21    16    17   2
    22    16    18   2
    23    16    19   1
    24    19    20   1
    25    20    21   1
    26    20    22   1
    27    20    23   1
    28    23    24   1
    29    24    25   1
    30    25    26   1
    31    26    27  ar
    32    27    28   1
    33    27    29  ar
    34    30    31  ar
    35    30    36  ar
    36    31    32   1
    37    31    33  ar
    38    33    34  ar
    39    34    35  ar
    40    34    37   1
    41    35    36  ar
    42    37    38   1
    43    38    39   1
    44    39    40  ar
    45    39    44  ar
    46    40    41  ar
    47    41    42  ar
    48    42    43  ar
    49    43    44  ar
    50     4    45   1
    51     5    46   1
    52     6    47   1
    53     8    48   1
    54     8    49   1
    55     8    50   1
    56    12    51   1
    57    13    52   1
    58    14    53   1
    59    19    54   1
    60    19    55   1
    61    21    56   1
    62    21    57   1
    63    21    58   1
    64    22    59   1
    65    22    60   1
    66    22    61   1
    67    23    62   1
    68    23    63   1
    69    25    64   1
    70    28    65   1
    71    29    66   1
    72    33    67   1
    73    35    68   1
    74    36    69   1
    75    38    70   1
    76    38    71   1
    77    40    72   1
    78    41    73   1
    79    42    74   1
    80    43    75   1
    81    44    76   1
@<TRIPOS>SUBSTRUCTURE
     1  XNC      2

