@<TRIPOS>MOLECULE
3gnw_ligand_088
    76    81
SMALL
GAST_HUCK
****
This file was generated by PARSER (from files_GN.cpp)

@<TRIPOS>ATOM
      1 O35        32.4612    8.4689   40.8709 O.2         1 XNC      -0.3687
      2 C16        31.8660    8.1470   41.8899 C.2         1 XNC       0.2510
      3 C17        30.6329    8.7575   42.0232 C.ar        1 XNC       0.1194
      4 C43        30.4637    9.9878   42.6894 C.ar        1 XNC      -0.0209
      5 C42        29.1718   10.5335   42.7932 C.ar        1 XNC      -0.0435
      6 C41        28.0741    9.8765   42.2047 C.ar        1 XNC      -0.0287
      7 C40        28.2880    8.6622   41.5169 C.ar        1 XNC       0.0301
      8 C44        27.1783    7.9682   40.8329 C.3         1 XNC      -0.0144
      9 N39        29.5460    8.1551   41.4629 N.ar        1 XNC      -0.2781
     10 N7         32.3153    7.1460   42.6836 N.am        1 XNC      -0.2078
     11 C4         31.6748    6.8369   43.8679 C.ar        1 XNC       0.0880
     12 C3         31.6193    7.8020   44.9013 C.ar        1 XNC      -0.0607
     13 C2         30.9833    7.5163   46.1195 C.ar        1 XNC      -0.0955
     14 C8         33.3844    6.2339   42.2580 C.3         1 XNC       0.1162
     15 C9         32.7396    5.1583   41.4866 C.2         1 XNC       0.0894
     16 S12        33.2482    4.9652   39.8424 S.o2        1 XNC      -0.0239
     17 O32        34.8313    4.8327   39.7518 O.2         1 XNC      -0.1768
     18 O33        32.8185    6.2413   39.0018 O.2         1 XNC      -0.1768
     19 C13        32.4767    3.5144   39.0893 C.3         1 XNC       0.0705
     20 C14        31.1150    3.1711   39.7676 C.3         1 XNC      -0.0050
     21 C37        30.0009    4.2041   39.4005 C.3         1 XNC      -0.0565
     22 C38        30.6561    1.7624   39.2654 C.3         1 XNC      -0.0565
     23 C15        31.3348    3.1233   41.3189 C.3         1 XNC       0.0036
     24 C10        31.7467    4.3727   41.9795 C.2         1 XNC       0.0422
     25 N11        31.1711    4.5327   43.1863 N.pl3       1 XNC      -0.2908
     26 C5         31.1255    5.5471   44.0873 C.ar        1 XNC       0.1100
     27 C6         30.4668    5.2788   45.3127 C.ar        1 XNC       0.0976
     28 O36        29.9298    4.0508   45.5471 O.3         1 XNC      -0.3423
     29 C1         30.3990    6.2575   46.3227 C.ar        1 XNC      -0.0580
     30 C18        34.3511    5.8349   43.3558 C.ar        1 XNC       0.0130
     31 C23        34.7280    4.4949   43.6809 C.ar        1 XNC       0.1283
     32 F34        34.3094    3.4515   43.0209 F           1 XNC      -0.1917
     33 C22        35.6221    4.2330   44.7395 C.ar        1 XNC      -0.0061
     34 C21        36.2432    5.2796   45.4427 C.ar        1 XNC       0.0849
     35 C20        35.8899    6.6062   45.1218 C.ar        1 XNC      -0.0435
     36 C19        34.9578    6.8686   44.1018 C.ar        1 XNC      -0.0671
     37 O24        37.1522    5.0552   46.4480 O.3         1 XNC      -0.3110
     38 C25        38.4066    4.4469   46.0572 C.3         1 XNC       0.1027
     39 C26        38.3333    2.9643   46.1343 C.ar        1 XNC      -0.0131
     40 C31        38.3023    2.1652   44.9672 C.ar        1 XNC      -0.0578
     41 C30        38.1148    0.7716   45.0578 C.ar        1 XNC      -0.0685
     42 C29        37.9942    0.1578   46.3169 C.ar        1 XNC      -0.0687
     43 C28        38.0765    0.9318   47.4852 C.ar        1 XNC      -0.0685
     44 C27        38.2356    2.3290   47.3946 C.ar        1 XNC      -0.0578
     45 H1         31.2590   10.4797   43.1073 H           1 XNC       0.0705
     46 H2         29.0323   11.4222   43.2832 H           1 XNC       0.0729
     47 H3         27.1403   10.2889   42.2647 H           1 XNC       0.0684
     48 H4         27.5259    7.0439   40.3646 H           1 XNC       0.0421
     49 H5         26.7622    8.6147   40.0566 H           1 XNC       0.0421
     50 H6         26.3889    7.7224   41.5461 H           1 XNC       0.0421
     51 H7         32.0546    8.7173   44.7745 H           1 XNC       0.0382
     52 H8         30.9544    8.2222   46.8591 H           1 XNC       0.0451
     53 H9         34.0484    6.7896   41.5840 H           1 XNC       0.0812
     54 H10        33.1775    2.6826   39.2097 H           1 XNC       0.0503
     55 H11        32.3529    3.6912   38.0167 H           1 XNC       0.0503
     56 H12        29.0574    3.9378   39.8838 H           1 XNC       0.0237
     57 H13        29.8357    4.2302   38.3211 H           1 XNC       0.0237
     58 H14        30.2649    5.2127   39.7232 H           1 XNC       0.0237
     59 H15        31.3884    0.9941   39.5253 H           1 XNC       0.0237
     60 H16        30.5338    1.7576   38.1793 H           1 XNC       0.0237
     61 H17        29.7016    1.4798   39.7150 H           1 XNC       0.0237
     62 H18        32.1055    2.3770   41.5429 H           1 XNC       0.0444
     63 H19        30.4123    2.7372   41.7664 H           1 XNC       0.0444
     64 H20        30.6592    3.7594   43.4663 H           1 XNC       0.2009
     65 H21        29.0900    4.2084   46.0399 H           1 XNC       0.2432
     66 H22        29.9452    6.0505   47.2140 H           1 XNC       0.0389
     67 H23        35.8297    3.2653   44.9853 H           1 XNC       0.0510
     68 H24        36.3140    7.3834   45.6367 H           1 XNC       0.0491
     69 H25        34.7271    7.8464   43.9071 H           1 XNC       0.0520
     70 H26        39.1700    4.7902   46.7589 H           1 XNC       0.0776
     71 H27        38.7281    4.7846   45.0656 H           1 XNC       0.0776
     72 H28        38.3709    2.5942   44.0411 H           1 XNC       0.0557
     73 H29        38.0620    0.2059   44.2058 H           1 XNC       0.0599
     74 H30        37.8477   -0.8498   46.3806 H           1 XNC       0.0559
     75 H31        38.0088    0.4841   48.4020 H           1 XNC       0.0599
     76 H32        38.2755    2.8813   48.2571 H           1 XNC       0.0557
@<TRIPOS>BOND
     1     1     2   2
     2     2     3   1
     3     2    10  am
     4     3     4  ar
     5     3     9  ar
     6     4     5  ar
     7     5     6  ar
     8     6     7  ar
     9     7     8   1
    10     7     9  ar
    11    10    11   1
    12    10    14   1
    13    11    12  ar
    14    11    26  ar
    15    12    13  ar
    16    13    29  ar
    17    14    15   1
    18    14    30   1
    19    15    16   1
    20    15    24   2
    21    16    17   2
    22    16    18   2
    23    16    19   1
    24    19    20   1
    25    20    21   1
    26    20    22   1
    27    20    23   1
    28    23    24   1
    29    24    25   1
    30    25    26   1
    31    26    27  ar
    32    27    28   1
    33    27    29  ar
    34    30    31  ar
    35    30    36  ar
    36    31    32   1
    37    31    33  ar
    38    33    34  ar
    39    34    35  ar
    40    34    37   1
    41    35    36  ar
    42    37    38   1
    43    38    39   1
    44    39    40  ar
    45    39    44  ar
    46    40    41  ar
    47    41    42  ar
    48    42    43  ar
    49    43    44  ar
    50     4    45   1
    51     5    46   1
    52     6    47   1
    53     8    48   1
    54     8    49   1
    55     8    50   1
    56    12    51   1
    57    13    52   1
    58    14    53   1
    59    19    54   1
    60    19    55   1
    61    21    56   1
    62    21    57   1
    63    21    58   1
    64    22    59   1
    65    22    60   1
    66    22    61   1
    67    23    62   1
    68    23    63   1
    69    25    64   1
    70    28    65   1
    71    29    66   1
    72    33    67   1
    73    35    68   1
    74    36    69   1
    75    38    70   1
    76    38    71   1
    77    40    72   1
    78    41    73   1
    79    42    74   1
    80    43    75   1
    81    44    76   1
@<TRIPOS>SUBSTRUCTURE
     1  XNC      2

