@<TRIPOS>MOLECULE
3gnw_ligand_076
    76    81
SMALL
GAST_HUCK
****
This file was generated by PARSER (from files_GN.cpp)

@<TRIPOS>ATOM
      1 O35        41.2103    1.3290   40.8589 O.2         1 XNC      -0.3687
      2 C16        40.7488    2.4484   41.0614 C.2         1 XNC       0.2510
      3 C17        41.2089    3.4198   40.1680 C.ar        1 XNC       0.1194
      4 C43        42.5403    3.4430   39.6838 C.ar        1 XNC      -0.0209
      5 C42        42.9399    4.4743   38.8149 C.ar        1 XNC      -0.0435
      6 C41        42.0196    5.4610   38.4191 C.ar        1 XNC      -0.0287
      7 C40        40.6948    5.4025   38.8989 C.ar        1 XNC       0.0301
      8 C44        39.6875    6.3984   38.4968 C.3         1 XNC      -0.0144
      9 N39        40.3545    4.3952   39.7483 N.ar        1 XNC      -0.2781
     10 N7         39.8272    2.6510   42.0415 N.am        1 XNC      -0.2078
     11 C4         39.4763    3.9256   42.4668 C.ar        1 XNC       0.0880
     12 C3         40.4975    4.8382   42.8252 C.ar        1 XNC      -0.0607
     13 C2         40.1976    6.1453   43.2367 C.ar        1 XNC      -0.0955
     14 C8         39.1319    1.5269   42.6834 C.3         1 XNC       0.1162
     15 C9         37.8902    1.3505   41.9114 C.2         1 XNC       0.0894
     16 S12        37.7356   -0.1063   40.9991 S.o2        1 XNC      -0.0239
     17 O32        38.0049   -1.4174   41.8632 O.2         1 XNC      -0.1768
     18 O33        38.7625   -0.0807   39.7862 O.2         1 XNC      -0.1768
     19 C13        36.1079   -0.2147   40.2334 C.3         1 XNC       0.0705
     20 C14        35.5437    1.2051   39.9230 C.3         1 XNC      -0.0050
     21 C37        36.3314    1.9125   38.7678 C.3         1 XNC      -0.0565
     22 C38        34.0598    1.0467   39.4629 C.3         1 XNC      -0.0565
     23 C15        35.5985    2.0471   41.2455 C.3         1 XNC       0.0036
     24 C10        36.9270    2.3048   41.8301 C.2         1 XNC       0.0422
     25 N11        37.0430    3.5406   42.3421 N.pl3       1 XNC      -0.2908
     26 C5         38.1188    4.3254   42.6297 C.ar        1 XNC       0.1100
     27 C6         37.8240    5.6320   43.0818 C.ar        1 XNC       0.0976
     28 O36        36.5360    6.0495   43.2122 O.3         1 XNC      -0.3423
     29 C1         38.8601    6.5376   43.3843 C.ar        1 XNC      -0.0580
     30 C18        38.9755    1.5758   44.1863 C.ar        1 XNC       0.0130
     31 C23        38.2223    0.6060   44.9198 C.ar        1 XNC       0.1283
     32 F34        37.6562   -0.4204   44.3293 F           1 XNC      -0.1917
     33 C22        38.0897    0.6952   46.3167 C.ar        1 XNC      -0.0061
     34 C21        38.7302    1.7177   47.0472 C.ar        1 XNC       0.0849
     35 C20        39.5835    2.5993   46.3434 C.ar        1 XNC      -0.0435
     36 C19        39.7109    2.5301   44.9418 C.ar        1 XNC      -0.0671
     37 O24        38.4989    1.7938   48.3985 O.3         1 XNC      -0.3110
     38 C25        38.4985    3.1274   48.9541 C.3         1 XNC       0.1027
     39 C26        37.5395    3.2604   50.0788 C.ar        1 XNC      -0.0131
     40 C31        37.7727    4.2141   51.0992 C.ar        1 XNC      -0.0578
     41 C30        36.8023    4.4623   52.0832 C.ar        1 XNC      -0.0685
     42 C29        35.5846    3.7582   52.0701 C.ar        1 XNC      -0.0687
     43 C28        35.3360    2.8093   51.0616 C.ar        1 XNC      -0.0685
     44 C27        36.3018    2.5680   50.0676 C.ar        1 XNC      -0.0578
     45 H1         43.2194    2.7345   39.9736 H           1 XNC       0.0705
     46 H2         43.9008    4.5023   38.4672 H           1 XNC       0.0729
     47 H3         42.3148    6.2088   37.7854 H           1 XNC       0.0684
     48 H4         38.7160    6.1832   38.9464 H           1 XNC       0.0421
     49 H5         39.5731    6.3928   37.4110 H           1 XNC       0.0421
     50 H6         40.0058    7.3922   38.8157 H           1 XNC       0.0421
     51 H7         41.4795    4.5710   42.7457 H           1 XNC       0.0382
     52 H8         40.9554    6.7967   43.4703 H           1 XNC       0.0451
     53 H9         39.7368    0.6250   42.5719 H           1 XNC       0.0812
     54 H10        35.4514   -0.7395   40.9336 H           1 XNC       0.0503
     55 H11        36.1819   -0.8186   39.3253 H           1 XNC       0.0503
     56 H12        35.8618    2.8632   38.5075 H           1 XNC       0.0237
     57 H13        36.3486    1.2850   37.8742 H           1 XNC       0.0237
     58 H14        37.3631    2.1239   39.0484 H           1 XNC       0.0237
     59 H15        33.4547    0.5765   40.2413 H           1 XNC       0.0237
     60 H16        33.9981    0.4263   38.5664 H           1 XNC       0.0237
     61 H17        33.6162    2.0173   39.2344 H           1 XNC       0.0237
     62 H18        35.0154    1.5368   42.0176 H           1 XNC       0.0444
     63 H19        35.0813    2.9961   41.0501 H           1 XNC       0.0444
     64 H20        36.1917    3.9930   42.4627 H           1 XNC       0.2009
     65 H21        36.5407    6.9982   42.9507 H           1 XNC       0.2432
     66 H22        38.6532    7.4861   43.6941 H           1 XNC       0.0389
     67 H23        37.5107    0.0074   46.8188 H           1 XNC       0.0510
     68 H24        40.0974    3.3168   46.8575 H           1 XNC       0.0491
     69 H25        40.3320    3.2010   44.4576 H           1 XNC       0.0520
     70 H26        38.2172    3.8971   48.2236 H           1 XNC       0.0776
     71 H27        39.5225    3.3390   49.2862 H           1 XNC       0.0776
     72 H28        38.6362    4.7613   51.1066 H           1 XNC       0.0557
     73 H29        36.9747    5.1712   52.7966 H           1 XNC       0.0599
     74 H30        34.8741    3.9460   52.7817 H           1 XNC       0.0559
     75 H31        34.4414    2.3123   51.0389 H           1 XNC       0.0599
     76 H32        36.0890    1.8982   49.3212 H           1 XNC       0.0557
@<TRIPOS>BOND
     1     1     2   2
     2     2     3   1
     3     2    10  am
     4     3     4  ar
     5     3     9  ar
     6     4     5  ar
     7     5     6  ar
     8     6     7  ar
     9     7     8   1
    10     7     9  ar
    11    10    11   1
    12    10    14   1
    13    11    12  ar
    14    11    26  ar
    15    12    13  ar
    16    13    29  ar
    17    14    15   1
    18    14    30   1
    19    15    16   1
    20    15    24   2
    21    16    17   2
    22    16    18   2
    23    16    19   1
    24    19    20   1
    25    20    21   1
    26    20    22   1
    27    20    23   1
    28    23    24   1
    29    24    25   1
    30    25    26   1
    31    26    27  ar
    32    27    28   1
    33    27    29  ar
    34    30    31  ar
    35    30    36  ar
    36    31    32   1
    37    31    33  ar
    38    33    34  ar
    39    34    35  ar
    40    34    37   1
    41    35    36  ar
    42    37    38   1
    43    38    39   1
    44    39    40  ar
    45    39    44  ar
    46    40    41  ar
    47    41    42  ar
    48    42    43  ar
    49    43    44  ar
    50     4    45   1
    51     5    46   1
    52     6    47   1
    53     8    48   1
    54     8    49   1
    55     8    50   1
    56    12    51   1
    57    13    52   1
    58    14    53   1
    59    19    54   1
    60    19    55   1
    61    21    56   1
    62    21    57   1
    63    21    58   1
    64    22    59   1
    65    22    60   1
    66    22    61   1
    67    23    62   1
    68    23    63   1
    69    25    64   1
    70    28    65   1
    71    29    66   1
    72    33    67   1
    73    35    68   1
    74    36    69   1
    75    38    70   1
    76    38    71   1
    77    40    72   1
    78    41    73   1
    79    42    74   1
    80    43    75   1
    81    44    76   1
@<TRIPOS>SUBSTRUCTURE
     1  XNC      2

