@<TRIPOS>MOLECULE
3gnw_ligand_054
    76    81
SMALL
GAST_HUCK
****
This file was generated by PARSER (from files_GN.cpp)

@<TRIPOS>ATOM
      1 O35        40.7477    5.4743   43.8238 O.2         1 XNC      -0.3687
      2 C16        39.6062    5.2522   44.2158 C.2         1 XNC       0.2510
      3 C17        39.5479    4.3882   45.2862 C.ar        1 XNC       0.1194
      4 C43        39.7577    2.9988   45.1564 C.ar        1 XNC      -0.0209
      5 C42        39.5803    2.1767   46.2828 C.ar        1 XNC      -0.0435
      6 C41        39.2705    2.7433   47.5306 C.ar        1 XNC      -0.0287
      7 C40        39.1393    4.1423   47.6394 C.ar        1 XNC       0.0301
      8 C44        38.8979    4.7835   48.9433 C.3         1 XNC      -0.0144
      9 N39        39.2554    4.8993   46.5135 N.ar        1 XNC      -0.2781
     10 N7         38.5308    5.8294   43.6297 N.am        1 XNC      -0.2078
     11 C4         38.7248    6.8632   42.7331 C.ar        1 XNC       0.0880
     12 C3         39.4172    8.0301   43.1508 C.ar        1 XNC      -0.0607
     13 C2         39.6120    9.1128   42.2788 C.ar        1 XNC      -0.0955
     14 C8         37.1601    5.3174   43.7754 C.3         1 XNC       0.1162
     15 C9         36.9193    4.3170   42.7159 C.2         1 XNC       0.0894
     16 S12        36.2489    2.8046   43.2182 S.o2        1 XNC      -0.0239
     17 O32        34.9169    3.0198   44.0650 O.2         1 XNC      -0.1768
     18 O33        37.2646    1.9985   44.1401 O.2         1 XNC      -0.1768
     19 C13        35.8892    1.7435   41.8081 C.3         1 XNC       0.0705
     20 C14        36.8130    2.0889   40.6007 C.3         1 XNC      -0.0050
     21 C37        38.3000    1.6634   40.8463 C.3         1 XNC      -0.0565
     22 C38        36.2902    1.3020   39.3530 C.3         1 XNC      -0.0565
     23 C15        36.7195    3.6296   40.3285 C.3         1 XNC       0.0036
     24 C10        37.1430    4.5557   41.3958 C.2         1 XNC       0.0422
     25 N11        37.5452    5.7384   40.8978 N.pl3       1 XNC      -0.2908
     26 C5         38.2057    6.8084   41.4137 C.ar        1 XNC       0.1100
     27 C6         38.3962    7.9129   40.5443 C.ar        1 XNC       0.0976
     28 O36        37.8973    7.8974   39.2801 O.3         1 XNC      -0.3423
     29 C1         39.0965    9.0549   40.9787 C.ar        1 XNC      -0.0580
     30 C18        36.0956    6.3762   43.9985 C.ar        1 XNC       0.0130
     31 C23        34.9454    6.5916   43.1867 C.ar        1 XNC       0.1283
     32 F34        34.7198    5.9288   42.0879 F           1 XNC      -0.1917
     33 C22        33.9581    7.5314   43.5458 C.ar        1 XNC      -0.0061
     34 C21        34.0587    8.2645   44.7456 C.ar        1 XNC       0.0849
     35 C20        35.2074    8.0973   45.5385 C.ar        1 XNC      -0.0435
     36 C19        36.2072    7.1769   45.1679 C.ar        1 XNC      -0.0671
     37 O24        33.1059    9.1609   45.1801 O.3         1 XNC      -0.3110
     38 C25        31.7027    8.8207   45.1077 C.3         1 XNC       0.1027
     39 C26        31.3240    7.5439   45.7695 C.ar        1 XNC      -0.0131
     40 C31        30.4650    6.6139   45.1376 C.ar        1 XNC      -0.0578
     41 C30        30.1000    5.4157   45.7835 C.ar        1 XNC      -0.0685
     42 C29        30.5991    5.1293   47.0684 C.ar        1 XNC      -0.0687
     43 C28        31.4527    6.0443   47.7086 C.ar        1 XNC      -0.0685
     44 C27        31.8067    7.2465   47.0655 C.ar        1 XNC      -0.0578
     45 H1         40.0093    2.5853   44.2542 H           1 XNC       0.0705
     46 H2         39.6784    1.1687   46.1979 H           1 XNC       0.0729
     47 H3         39.1752    2.1443   48.3530 H           1 XNC       0.0684
     48 H4         38.8751    5.8653   48.8369 H           1 XNC       0.0421
     49 H5         39.6973    4.5200   49.6368 H           1 XNC       0.0421
     50 H6         37.9440    4.4527   49.3523 H           1 XNC       0.0421
     51 H7         39.7746    8.1009   44.1074 H           1 XNC       0.0382
     52 H8         40.1138    9.9431   42.5985 H           1 XNC       0.0451
     53 H9         37.1037    4.7728   44.7204 H           1 XNC       0.0812
     54 H10        34.8392    1.8938   41.5392 H           1 XNC       0.0503
     55 H11        36.0101    0.7001   42.1072 H           1 XNC       0.0503
     56 H12        38.9108    1.8835   39.9677 H           1 XNC       0.0237
     57 H13        38.3681    0.5919   41.0466 H           1 XNC       0.0237
     58 H14        38.7365    2.1934   41.6935 H           1 XNC       0.0237
     59 H15        35.2567    1.5728   39.1242 H           1 XNC       0.0237
     60 H16        36.3255    0.2248   39.5352 H           1 XNC       0.0237
     61 H17        36.8972    1.5166   38.4705 H           1 XNC       0.0237
     62 H18        35.6841    3.8866   40.0863 H           1 XNC       0.0444
     63 H19        37.3063    3.8280   39.4257 H           1 XNC       0.0444
     64 H20        37.3420    5.8393   39.9571 H           1 XNC       0.2009
     65 H21        37.5000    8.7885   39.1425 H           1 XNC       0.2432
     66 H22        39.2304    9.8440   40.3472 H           1 XNC       0.0389
     67 H23        33.1484    7.6696   42.9383 H           1 XNC       0.0510
     68 H24        35.3118    8.6314   46.4027 H           1 XNC       0.0491
     69 H25        37.0177    7.0718   45.7879 H           1 XNC       0.0520
     70 H26        31.3791    8.8441   44.0637 H           1 XNC       0.0776
     71 H27        31.1594    9.6201   45.6162 H           1 XNC       0.0776
     72 H28        30.0903    6.8039   44.2078 H           1 XNC       0.0557
     73 H29        29.4730    4.7539   45.3205 H           1 XNC       0.0599
     74 H30        30.3346    4.2608   47.5392 H           1 XNC       0.0559
     75 H31        31.8124    5.8417   48.6430 H           1 XNC       0.0599
     76 H32        32.4225    7.9023   47.5493 H           1 XNC       0.0557
@<TRIPOS>BOND
     1     1     2   2
     2     2     3   1
     3     2    10  am
     4     3     4  ar
     5     3     9  ar
     6     4     5  ar
     7     5     6  ar
     8     6     7  ar
     9     7     8   1
    10     7     9  ar
    11    10    11   1
    12    10    14   1
    13    11    12  ar
    14    11    26  ar
    15    12    13  ar
    16    13    29  ar
    17    14    15   1
    18    14    30   1
    19    15    16   1
    20    15    24   2
    21    16    17   2
    22    16    18   2
    23    16    19   1
    24    19    20   1
    25    20    21   1
    26    20    22   1
    27    20    23   1
    28    23    24   1
    29    24    25   1
    30    25    26   1
    31    26    27  ar
    32    27    28   1
    33    27    29  ar
    34    30    31  ar
    35    30    36  ar
    36    31    32   1
    37    31    33  ar
    38    33    34  ar
    39    34    35  ar
    40    34    37   1
    41    35    36  ar
    42    37    38   1
    43    38    39   1
    44    39    40  ar
    45    39    44  ar
    46    40    41  ar
    47    41    42  ar
    48    42    43  ar
    49    43    44  ar
    50     4    45   1
    51     5    46   1
    52     6    47   1
    53     8    48   1
    54     8    49   1
    55     8    50   1
    56    12    51   1
    57    13    52   1
    58    14    53   1
    59    19    54   1
    60    19    55   1
    61    21    56   1
    62    21    57   1
    63    21    58   1
    64    22    59   1
    65    22    60   1
    66    22    61   1
    67    23    62   1
    68    23    63   1
    69    25    64   1
    70    28    65   1
    71    29    66   1
    72    33    67   1
    73    35    68   1
    74    36    69   1
    75    38    70   1
    76    38    71   1
    77    40    72   1
    78    41    73   1
    79    42    74   1
    80    43    75   1
    81    44    76   1
@<TRIPOS>SUBSTRUCTURE
     1  XNC      2

