@<TRIPOS>MOLECULE
3gnw_ligand_011
    76    81
SMALL
GAST_HUCK
****
This file was generated by PARSER (from files_GN.cpp)

@<TRIPOS>ATOM
      1 O35        37.0118    6.2753   46.9125 O.2         1 XNC      -0.3687
      2 C16        36.6282    5.1694   47.2867 C.2         1 XNC       0.2510
      3 C17        37.1523    4.7676   48.5152 C.ar        1 XNC       0.1194
      4 C43        38.5132    4.9467   48.8575 C.ar        1 XNC      -0.0209
      5 C42        38.9770    4.4963   50.1048 C.ar        1 XNC      -0.0435
      6 C41        38.0889    3.9127   51.0254 C.ar        1 XNC      -0.0287
      7 C40        36.7349    3.7524   50.6628 C.ar        1 XNC       0.0301
      8 C44        35.7544    3.1502   51.5821 C.3         1 XNC      -0.0144
      9 N39        36.3409    4.1648   49.4283 N.ar        1 XNC      -0.2781
     10 N7         35.7145    4.4767   46.5613 N.am        1 XNC      -0.2078
     11 C4         35.3878    3.1619   46.8748 C.ar        1 XNC       0.0880
     12 C3         36.4108    2.1895   47.0038 C.ar        1 XNC      -0.0607
     13 C2         36.1088    0.8563   47.3194 C.ar        1 XNC      -0.0955
     14 C8         35.0120    5.0706   45.4148 C.3         1 XNC       0.1162
     15 C9         33.7414    5.6168   45.9454 C.2         1 XNC       0.0894
     16 S12        33.4465    7.2969   45.6970 S.o2        1 XNC      -0.0239
     17 O32        33.3517    7.5817   44.1342 O.2         1 XNC      -0.1768
     18 O33        34.6371    8.1874   46.2637 O.2         1 XNC      -0.1768
     19 C13        31.8941    7.7990   46.4651 C.3         1 XNC       0.0705
     20 C14        30.8762    6.6203   46.5124 C.3         1 XNC      -0.0050
     21 C37        29.6359    7.0284   47.3756 C.3         1 XNC      -0.0565
     22 C38        30.3508    6.2468   45.0896 C.3         1 XNC      -0.0565
     23 C15        31.5778    5.3978   47.1925 C.3         1 XNC       0.0036
     24 C10        32.8183    4.8660   46.6049 C.2         1 XNC       0.0422
     25 N11        32.9644    3.5690   46.8999 N.pl3       1 XNC      -0.2908
     26 C5         34.0347    2.7552   47.0265 C.ar        1 XNC       0.1100
     27 C6         33.7420    1.4166   47.3747 C.ar        1 XNC       0.0976
     28 O36        32.4633    1.0012   47.5764 O.3         1 XNC      -0.3423
     29 C1         34.7732    0.4791   47.5207 C.ar        1 XNC      -0.0580
     30 C18        34.9466    4.1924   44.1824 C.ar        1 XNC       0.0130
     31 C23        36.0869    3.4622   43.7569 C.ar        1 XNC       0.1283
     32 F34        37.2507    3.6133   44.3294 F           1 XNC      -0.1917
     33 C22        36.0198    2.5624   42.6741 C.ar        1 XNC      -0.0061
     34 C21        34.8444    2.4451   41.9055 C.ar        1 XNC       0.0849
     35 C20        33.7464    3.2600   42.2352 C.ar        1 XNC      -0.0435
     36 C19        33.7945    4.1044   43.3607 C.ar        1 XNC      -0.0671
     37 O24        34.7599    1.6664   40.7739 O.3         1 XNC      -0.3110
     38 C25        34.8405    0.2321   40.9333 C.3         1 XNC       0.1027
     39 C26        36.2080   -0.3625   40.8795 C.ar        1 XNC      -0.0131
     40 C31        36.4121   -1.6936   41.3267 C.ar        1 XNC      -0.0578
     41 C30        37.6896   -2.2807   41.2938 C.ar        1 XNC      -0.0685
     42 C29        38.7886   -1.5477   40.8087 C.ar        1 XNC      -0.0687
     43 C28        38.6034   -0.2327   40.3484 C.ar        1 XNC      -0.0685
     44 C27        37.3189    0.3461   40.3613 C.ar        1 XNC      -0.0578
     45 H1         39.1719    5.3706   48.1992 H           1 XNC       0.0705
     46 H2         39.9660    4.5994   50.3388 H           1 XNC       0.0729
     47 H3         38.4279    3.6063   51.9409 H           1 XNC       0.0684
     48 H4         34.7665    3.0912   51.1215 H           1 XNC       0.0421
     49 H5         35.6781    3.7563   52.4861 H           1 XNC       0.0421
     50 H6         36.0700    2.1418   51.8552 H           1 XNC       0.0421
     51 H7         37.3908    2.4473   46.8672 H           1 XNC       0.0382
     52 H8         36.8572    0.1658   47.4023 H           1 XNC       0.0451
     53 H9         35.6055    5.9060   45.0314 H           1 XNC       0.0812
     54 H10        31.4810    8.6542   45.9244 H           1 XNC       0.0503
     55 H11        32.1265    8.1203   47.4825 H           1 XNC       0.0503
     56 H12        28.8803    6.2384   47.3710 H           1 XNC       0.0237
     57 H13        29.1797    7.9437   46.9922 H           1 XNC       0.0237
     58 H14        29.9203    7.1994   48.4136 H           1 XNC       0.0237
     59 H15        31.1622    5.9772   44.4186 H           1 XNC       0.0237
     60 H16        29.8116    7.0862   44.6448 H           1 XNC       0.0237
     61 H17        29.6725    5.3931   45.1460 H           1 XNC       0.0237
     62 H18        30.8182    4.6064   47.2680 H           1 XNC       0.0444
     63 H19        31.8315    5.6676   48.2235 H           1 XNC       0.0444
     64 H20        32.1289    3.1316   47.1303 H           1 XNC       0.2009
     65 H21        32.4687    0.6120   48.4789 H           1 XNC       0.2432
     66 H22        34.5419   -0.4839   47.7594 H           1 XNC       0.0389
     67 H23        36.8415    2.0136   42.4328 H           1 XNC       0.0510
     68 H24        32.9041    3.2475   41.6493 H           1 XNC       0.0491
     69 H25        32.9737    4.6759   43.5589 H           1 XNC       0.0520
     70 H26        34.2753   -0.2031   40.1074 H           1 XNC       0.0776
     71 H27        34.3369   -0.0726   41.8531 H           1 XNC       0.0776
     72 H28        35.6286   -2.2416   41.6840 H           1 XNC       0.0557
     73 H29        37.8266   -3.2378   41.6266 H           1 XNC       0.0599
     74 H30        39.7225   -1.9698   40.7894 H           1 XNC       0.0559
     75 H31        39.4001    0.3003   39.9904 H           1 XNC       0.0599
     76 H32        37.2133    1.2961   40.0050 H           1 XNC       0.0557
@<TRIPOS>BOND
     1     1     2   2
     2     2     3   1
     3     2    10  am
     4     3     4  ar
     5     3     9  ar
     6     4     5  ar
     7     5     6  ar
     8     6     7  ar
     9     7     8   1
    10     7     9  ar
    11    10    11   1
    12    10    14   1
    13    11    12  ar
    14    11    26  ar
    15    12    13  ar
    16    13    29  ar
    17    14    15   1
    18    14    30   1
    19    15    16   1
    20    15    24   2
    21    16    17   2
    22    16    18   2
    23    16    19   1
    24    19    20   1
    25    20    21   1
    26    20    22   1
    27    20    23   1
    28    23    24   1
    29    24    25   1
    30    25    26   1
    31    26    27  ar
    32    27    28   1
    33    27    29  ar
    34    30    31  ar
    35    30    36  ar
    36    31    32   1
    37    31    33  ar
    38    33    34  ar
    39    34    35  ar
    40    34    37   1
    41    35    36  ar
    42    37    38   1
    43    38    39   1
    44    39    40  ar
    45    39    44  ar
    46    40    41  ar
    47    41    42  ar
    48    42    43  ar
    49    43    44  ar
    50     4    45   1
    51     5    46   1
    52     6    47   1
    53     8    48   1
    54     8    49   1
    55     8    50   1
    56    12    51   1
    57    13    52   1
    58    14    53   1
    59    19    54   1
    60    19    55   1
    61    21    56   1
    62    21    57   1
    63    21    58   1
    64    22    59   1
    65    22    60   1
    66    22    61   1
    67    23    62   1
    68    23    63   1
    69    25    64   1
    70    28    65   1
    71    29    66   1
    72    33    67   1
    73    35    68   1
    74    36    69   1
    75    38    70   1
    76    38    71   1
    77    40    72   1
    78    41    73   1
    79    42    74   1
    80    43    75   1
    81    44    76   1
@<TRIPOS>SUBSTRUCTURE
     1  XNC      2

