@<TRIPOS>MOLECULE
3gnw_ligand_051
    76    81
SMALL
GAST_HUCK
****
This file was generated by PARSER (from files_GN.cpp)

@<TRIPOS>ATOM
      1 O35        30.8796    4.5621   38.2770 O.2         1 XNC      -0.3687
      2 C16        29.7701    4.7460   38.7673 C.2         1 XNC       0.2510
      3 C17        29.7402    5.6839   39.8103 C.ar        1 XNC       0.1194
      4 C43        30.7771    5.8080   40.7685 C.ar        1 XNC      -0.0209
      5 C42        30.6815    6.7761   41.7849 C.ar        1 XNC      -0.0435
      6 C41        29.5687    7.6330   41.8390 C.ar        1 XNC      -0.0287
      7 C40        28.5580    7.5061   40.8629 C.ar        1 XNC       0.0301
      8 C44        27.3795    8.3957   40.8523 C.3         1 XNC      -0.0144
      9 N39        28.6936    6.5528   39.9027 N.ar        1 XNC      -0.2781
     10 N7         28.6913    4.1225   38.2307 N.am        1 XNC      -0.2078
     11 C4         27.4569    4.1289   38.8626 C.ar        1 XNC       0.0880
     12 C3         27.3489    3.6561   40.1961 C.ar        1 XNC      -0.0607
     13 C2         26.1173    3.6504   40.8661 C.ar        1 XNC      -0.0955
     14 C8         28.7441    3.4561   36.9256 C.3         1 XNC       0.1162
     15 C9         28.3433    4.4303   35.8969 C.2         1 XNC       0.0894
     16 S12        29.4152    4.5941   34.5570 S.o2        1 XNC      -0.0239
     17 O32        29.5388    3.1796   33.8393 O.2         1 XNC      -0.1768
     18 O33        30.8706    5.0195   35.0403 O.2         1 XNC      -0.1768
     19 C13        28.8006    5.7972   33.3678 C.3         1 XNC       0.0705
     20 C14        27.2487    5.9231   33.4453 C.3         1 XNC      -0.0050
     21 C37        26.8092    7.1596   32.5927 C.3         1 XNC      -0.0565
     22 C38        26.5399    4.6557   32.8632 C.3         1 XNC      -0.0565
     23 C15        26.8405    6.1687   34.9401 C.3         1 XNC       0.0036
     24 C10        27.1879    5.1523   35.9468 C.2         1 XNC       0.0422
     25 N11        26.2621    5.0424   36.9152 N.pl3       1 XNC      -0.2908
     26 C5         26.2835    4.5622   38.1892 C.ar        1 XNC       0.1100
     27 C6         25.0488    4.5558   38.8802 C.ar        1 XNC       0.0976
     28 O36        23.9086    5.0200   38.3190 O.3         1 XNC      -0.3423
     29 C1         24.9654    4.0987   40.2083 C.ar        1 XNC      -0.0580
     30 C18        28.0844    2.0965   36.9222 C.ar        1 XNC       0.0130
     31 C23        28.6456    1.0536   37.7098 C.ar        1 XNC       0.1283
     32 F34        29.7628    1.2133   38.3722 F           1 XNC      -0.1917
     33 C22        28.0240   -0.2047   37.7973 C.ar        1 XNC      -0.0061
     34 C21        26.8155   -0.4496   37.1247 C.ar        1 XNC       0.0849
     35 C20        26.2666    0.5526   36.3008 C.ar        1 XNC      -0.0435
     36 C19        26.8939    1.8064   36.2052 C.ar        1 XNC      -0.0671
     37 O24        26.2524   -1.6848   37.2813 O.3         1 XNC      -0.3110
     38 C25        24.9179   -1.7335   37.8179 C.3         1 XNC       0.1027
     39 C26        24.6719   -3.0774   38.3938 C.ar        1 XNC      -0.0131
     40 C31        24.9740   -4.2420   37.6490 C.ar        1 XNC      -0.0578
     41 C30        24.7159   -5.5253   38.1705 C.ar        1 XNC      -0.0685
     42 C29        24.1346   -5.6593   39.4438 C.ar        1 XNC      -0.0687
     43 C28        23.8331   -4.5134   40.2005 C.ar        1 XNC      -0.0685
     44 C27        24.1106   -3.2350   39.6828 C.ar        1 XNC      -0.0578
     45 H1         31.5947    5.1910   40.7443 H           1 XNC       0.0705
     46 H2         31.4248    6.8621   42.4801 H           1 XNC       0.0729
     47 H3         29.5015    8.3386   42.5791 H           1 XNC       0.0684
     48 H4         26.7105    8.1546   40.0211 H           1 XNC       0.0421
     49 H5         27.7059    9.4340   40.7473 H           1 XNC       0.0421
     50 H6         26.8164    8.2916   41.7825 H           1 XNC       0.0421
     51 H7         28.1802    3.3285   40.6911 H           1 XNC       0.0382
     52 H8         26.0578    3.3202   41.8312 H           1 XNC       0.0451
     53 H9         29.7843    3.1967   36.6998 H           1 XNC       0.0812
     54 H10        29.1264    5.5004   32.3698 H           1 XNC       0.0503
     55 H11        29.2700    6.7564   33.6073 H           1 XNC       0.0503
     56 H12        25.7254    7.2765   32.6180 H           1 XNC       0.0237
     57 H13        27.1138    7.0478   31.5510 H           1 XNC       0.0237
     58 H14        27.2526    8.0816   32.9763 H           1 XNC       0.0237
     59 H15        26.8100    3.7548   33.4151 H           1 XNC       0.0237
     60 H16        26.8199    4.5051   31.8198 H           1 XNC       0.0237
     61 H17        25.4550    4.7641   32.9107 H           1 XNC       0.0237
     62 H18        25.7593    6.3538   34.9469 H           1 XNC       0.0444
     63 H19        27.3082    7.0974   35.2812 H           1 XNC       0.0444
     64 H20        25.3965    5.4016   36.6594 H           1 XNC       0.2009
     65 H21        23.7428    4.4294   37.5513 H           1 XNC       0.2432
     66 H22        24.0668    4.0935   40.6980 H           1 XNC       0.0389
     67 H23        28.4498   -0.9507   38.3563 H           1 XNC       0.0510
     68 H24        25.4003    0.3817   35.7830 H           1 XNC       0.0491
     69 H25        26.4476    2.5149   35.6253 H           1 XNC       0.0520
     70 H26        24.2035   -1.5777   37.0049 H           1 XNC       0.0776
     71 H27        24.7780   -0.9555   38.5779 H           1 XNC       0.0776
     72 H28        25.4109   -4.1612   36.7273 H           1 XNC       0.0557
     73 H29        24.9563   -6.3585   37.6268 H           1 XNC       0.0599
     74 H30        23.9345   -6.5890   39.8225 H           1 XNC       0.0559
     75 H31        23.4066   -4.6090   41.1255 H           1 XNC       0.0599
     76 H32        23.8733   -2.4168   40.2499 H           1 XNC       0.0557
@<TRIPOS>BOND
     1     1     2   2
     2     2     3   1
     3     2    10  am
     4     3     4  ar
     5     3     9  ar
     6     4     5  ar
     7     5     6  ar
     8     6     7  ar
     9     7     8   1
    10     7     9  ar
    11    10    11   1
    12    10    14   1
    13    11    12  ar
    14    11    26  ar
    15    12    13  ar
    16    13    29  ar
    17    14    15   1
    18    14    30   1
    19    15    16   1
    20    15    24   2
    21    16    17   2
    22    16    18   2
    23    16    19   1
    24    19    20   1
    25    20    21   1
    26    20    22   1
    27    20    23   1
    28    23    24   1
    29    24    25   1
    30    25    26   1
    31    26    27  ar
    32    27    28   1
    33    27    29  ar
    34    30    31  ar
    35    30    36  ar
    36    31    32   1
    37    31    33  ar
    38    33    34  ar
    39    34    35  ar
    40    34    37   1
    41    35    36  ar
    42    37    38   1
    43    38    39   1
    44    39    40  ar
    45    39    44  ar
    46    40    41  ar
    47    41    42  ar
    48    42    43  ar
    49    43    44  ar
    50     4    45   1
    51     5    46   1
    52     6    47   1
    53     8    48   1
    54     8    49   1
    55     8    50   1
    56    12    51   1
    57    13    52   1
    58    14    53   1
    59    19    54   1
    60    19    55   1
    61    21    56   1
    62    21    57   1
    63    21    58   1
    64    22    59   1
    65    22    60   1
    66    22    61   1
    67    23    62   1
    68    23    63   1
    69    25    64   1
    70    28    65   1
    71    29    66   1
    72    33    67   1
    73    35    68   1
    74    36    69   1
    75    38    70   1
    76    38    71   1
    77    40    72   1
    78    41    73   1
    79    42    74   1
    80    43    75   1
    81    44    76   1
@<TRIPOS>SUBSTRUCTURE
     1  XNC      2

