@<TRIPOS>MOLECULE
3gnw_ligand_077
    76    81
SMALL
GAST_HUCK
****
This file was generated by PARSER (from files_GN.cpp)

@<TRIPOS>ATOM
      1 O35        31.4990    0.7105   38.2717 O.2         1 XNC      -0.3687
      2 C16        30.8058    1.7201   38.1760 C.2         1 XNC       0.2510
      3 C17        30.8270    2.4875   39.3246 C.ar        1 XNC       0.1194
      4 C43        31.9308    3.3183   39.6269 C.ar        1 XNC      -0.0209
      5 C42        31.9215    4.0565   40.8242 C.ar        1 XNC      -0.0435
      6 C41        30.8258    3.9655   41.7000 C.ar        1 XNC      -0.0287
      7 C40        29.7443    3.1219   41.3680 C.ar        1 XNC       0.0301
      8 C44        28.5560    3.0301   42.2378 C.3         1 XNC      -0.0144
      9 N39        29.7866    2.4124   40.2036 N.ar        1 XNC      -0.2781
     10 N7         30.1963    2.0484   37.0110 N.am        1 XNC      -0.2078
     11 C4         30.5254    1.3789   35.8441 C.ar        1 XNC       0.0880
     12 C3         31.8862    1.2954   35.4547 C.ar        1 XNC      -0.0607
     13 C2         32.2661    0.6280   34.2808 C.ar        1 XNC      -0.0955
     14 C8         29.1385    3.0572   36.9119 C.3         1 XNC       0.1162
     15 C9         27.8379    2.3716   37.0472 C.2         1 XNC       0.0894
     16 S12        26.7519    3.0288   38.2103 S.o2        1 XNC      -0.0239
     17 O32        26.3032    4.4950   37.7683 O.2         1 XNC      -0.1768
     18 O33        27.4275    3.1699   39.6478 O.2         1 XNC      -0.1768
     19 C13        25.3084    1.9744   38.3804 C.3         1 XNC       0.0705
     20 C14        24.9024    1.3750   37.0041 C.3         1 XNC      -0.0050
     21 C37        23.7794    0.3180   37.2669 C.3         1 XNC      -0.0565
     22 C38        24.3214    2.4694   36.0445 C.3         1 XNC      -0.0565
     23 C15        26.1407    0.6602   36.3506 C.3         1 XNC       0.0036
     24 C10        27.4392    1.3548   36.2379 C.2         1 XNC       0.0422
     25 N11        28.1950    0.8354   35.2535 N.pl3       1 XNC      -0.2908
     26 C5         29.5285    0.8355   34.9873 C.ar        1 XNC       0.1100
     27 C6         29.9217    0.1930   33.7856 C.ar        1 XNC       0.0976
     28 O36        28.9918   -0.3256   32.9356 O.3         1 XNC      -0.3423
     29 C1         31.2818    0.0949   33.4379 C.ar        1 XNC      -0.0580
     30 C18        29.2883    4.0016   35.7431 C.ar        1 XNC       0.0130
     31 C23        30.5683    4.5463   35.4560 C.ar        1 XNC       0.1283
     32 F34        31.6212    4.2335   36.1626 F           1 XNC      -0.1917
     33 C22        30.7476    5.4682   34.4093 C.ar        1 XNC      -0.0061
     34 C21        29.6485    5.8918   33.6422 C.ar        1 XNC       0.0849
     35 C20        28.3814    5.3312   33.8742 C.ar        1 XNC      -0.0435
     36 C19        28.2038    4.4039   34.9157 C.ar        1 XNC      -0.0671
     37 O24        29.8134    6.8911   32.7296 O.3         1 XNC      -0.3110
     38 C25        29.1033    8.1426   32.9399 C.3         1 XNC       0.1027
     39 C26        28.3052    8.3335   34.1894 C.ar        1 XNC      -0.0131
     40 C31        26.9041    8.1415   34.1951 C.ar        1 XNC      -0.0578
     41 C30        26.1688    8.2560   35.3893 C.ar        1 XNC      -0.0685
     42 C29        26.8262    8.5537   36.5965 C.ar        1 XNC      -0.0687
     43 C28        28.2188    8.7449   36.6068 C.ar        1 XNC      -0.0685
     44 C27        28.9525    8.6400   35.4105 C.ar        1 XNC      -0.0578
     45 H1         32.7414    3.3718   39.0044 H           1 XNC       0.0705
     46 H2         32.7172    4.6529   41.0614 H           1 XNC       0.0729
     47 H3         30.8181    4.5049   42.5692 H           1 XNC       0.0684
     48 H4         27.8513    2.2816   41.8668 H           1 XNC       0.0421
     49 H5         28.0430    3.9911   42.2699 H           1 XNC       0.0421
     50 H6         28.8531    2.7606   43.2508 H           1 XNC       0.0421
     51 H7         32.6156    1.7214   36.0308 H           1 XNC       0.0382
     52 H8         33.2547    0.5560   34.0283 H           1 XNC       0.0451
     53 H9         29.2364    3.7433   37.7538 H           1 XNC       0.0812
     54 H10        24.4979    2.5589   38.8192 H           1 XNC       0.0503
     55 H11        25.5695    1.1744   39.0769 H           1 XNC       0.0503
     56 H12        23.4452   -0.1362   36.3320 H           1 XNC       0.0237
     57 H13        22.9174    0.7818   37.7544 H           1 XNC       0.0237
     58 H14        24.1416   -0.4806   37.9202 H           1 XNC       0.0237
     59 H15        25.0818    3.1922   35.7534 H           1 XNC       0.0237
     60 H16        23.5078    3.0141   36.5296 H           1 XNC       0.0237
     61 H17        23.9330    2.0163   35.1288 H           1 XNC       0.0237
     62 H18        25.8138    0.3353   35.3548 H           1 XNC       0.0444
     63 H19        26.3545   -0.2546   36.9117 H           1 XNC       0.0444
     64 H20        27.6833    0.3059   34.6210 H           1 XNC       0.2009
     65 H21        29.4159   -1.0870   32.4843 H           1 XNC       0.2432
     66 H22        31.5600   -0.3631   32.5661 H           1 XNC       0.0389
     67 H23        31.6715    5.8745   34.2382 H           1 XNC       0.0510
     68 H24        27.5761    5.6309   33.3187 H           1 XNC       0.0491
     69 H25        27.2569    4.0529   35.0736 H           1 XNC       0.0520
     70 H26        28.4616    8.2709   32.0650 H           1 XNC       0.0776
     71 H27        29.8451    8.9417   32.8798 H           1 XNC       0.0776
     72 H28        26.4136    7.9010   33.3340 H           1 XNC       0.0557
     73 H29        25.1569    8.1158   35.3842 H           1 XNC       0.0599
     74 H30        26.2902    8.6382   37.4643 H           1 XNC       0.0559
     75 H31        28.6978    8.9568   37.4837 H           1 XNC       0.0599
     76 H32        29.9665    8.7684   35.4398 H           1 XNC       0.0557
@<TRIPOS>BOND
     1     1     2   2
     2     2     3   1
     3     2    10  am
     4     3     4  ar
     5     3     9  ar
     6     4     5  ar
     7     5     6  ar
     8     6     7  ar
     9     7     8   1
    10     7     9  ar
    11    10    11   1
    12    10    14   1
    13    11    12  ar
    14    11    26  ar
    15    12    13  ar
    16    13    29  ar
    17    14    15   1
    18    14    30   1
    19    15    16   1
    20    15    24   2
    21    16    17   2
    22    16    18   2
    23    16    19   1
    24    19    20   1
    25    20    21   1
    26    20    22   1
    27    20    23   1
    28    23    24   1
    29    24    25   1
    30    25    26   1
    31    26    27  ar
    32    27    28   1
    33    27    29  ar
    34    30    31  ar
    35    30    36  ar
    36    31    32   1
    37    31    33  ar
    38    33    34  ar
    39    34    35  ar
    40    34    37   1
    41    35    36  ar
    42    37    38   1
    43    38    39   1
    44    39    40  ar
    45    39    44  ar
    46    40    41  ar
    47    41    42  ar
    48    42    43  ar
    49    43    44  ar
    50     4    45   1
    51     5    46   1
    52     6    47   1
    53     8    48   1
    54     8    49   1
    55     8    50   1
    56    12    51   1
    57    13    52   1
    58    14    53   1
    59    19    54   1
    60    19    55   1
    61    21    56   1
    62    21    57   1
    63    21    58   1
    64    22    59   1
    65    22    60   1
    66    22    61   1
    67    23    62   1
    68    23    63   1
    69    25    64   1
    70    28    65   1
    71    29    66   1
    72    33    67   1
    73    35    68   1
    74    36    69   1
    75    38    70   1
    76    38    71   1
    77    40    72   1
    78    41    73   1
    79    42    74   1
    80    43    75   1
    81    44    76   1
@<TRIPOS>SUBSTRUCTURE
     1  XNC      2

