@<TRIPOS>MOLECULE
3gnw_ligand_052
    76    81
SMALL
GAST_HUCK
****
This file was generated by PARSER (from files_GN.cpp)

@<TRIPOS>ATOM
      1 O35        31.5620    0.9974   41.0749 O.2         1 XNC      -0.3687
      2 C16        31.5024    1.1409   39.8591 C.2         1 XNC       0.2510
      3 C17        32.6936    0.8035   39.1864 C.ar        1 XNC       0.1194
      4 C43        33.9744    0.9463   39.7777 C.ar        1 XNC      -0.0209
      5 C42        35.1351    0.6593   39.0274 C.ar        1 XNC      -0.0435
      6 C41        35.0168    0.2207   37.7030 C.ar        1 XNC      -0.0287
      7 C40        33.7358    0.0461   37.1445 C.ar        1 XNC       0.0301
      8 C44        33.5662   -0.4135   35.7572 C.3         1 XNC      -0.0144
      9 N39        32.6510    0.3321   37.9092 N.ar        1 XNC      -0.2781
     10 N7         30.3289    1.5525   39.3012 N.am        1 XNC      -0.2078
     11 C4         30.2176    1.9109   37.9583 C.ar        1 XNC       0.0880
     12 C3         31.1272    2.8482   37.4029 C.ar        1 XNC      -0.0607
     13 C2         31.0013    3.2986   36.0788 C.ar        1 XNC      -0.0955
     14 C8         29.0973    1.6993   40.1076 C.3         1 XNC       0.1162
     15 C9         28.3634    0.4305   39.9438 C.2         1 XNC       0.0894
     16 S12        28.1210   -0.5362   41.3534 S.o2        1 XNC      -0.0239
     17 O32        27.1462    0.2092   42.3633 O.2         1 XNC      -0.1768
     18 O33        29.4890   -0.7764   42.1327 O.2         1 XNC      -0.1768
     19 C13        27.4319   -2.1557   40.9432 C.3         1 XNC       0.0705
     20 C14        27.6299   -2.4991   39.4326 C.3         1 XNC      -0.0050
     21 C37        29.1184   -2.8732   39.1233 C.3         1 XNC      -0.0565
     22 C38        26.7462   -3.7358   39.0790 C.3         1 XNC      -0.0565
     23 C15        27.1592   -1.2615   38.5870 C.3         1 XNC       0.0036
     24 C10        27.9569   -0.0314   38.7342 C.2         1 XNC       0.0422
     25 N11        28.1592    0.6126   37.5743 N.pl3       1 XNC      -0.2908
     26 C5         29.1180    1.4820   37.1606 C.ar        1 XNC       0.1100
     27 C6         28.9869    1.9578   35.8318 C.ar        1 XNC       0.0976
     28 O36        27.9342    1.5982   35.0516 O.3         1 XNC      -0.3423
     29 C1         29.9296    2.8493   35.2908 C.ar        1 XNC      -0.0580
     30 C18        28.3292    2.9949   39.9137 C.ar        1 XNC       0.0130
     31 C23        26.9291    3.1772   40.1031 C.ar        1 XNC       0.1283
     32 F34        26.1408    2.1861   40.4303 F           1 XNC      -0.1917
     33 C22        26.3320    4.4499   39.9671 C.ar        1 XNC      -0.0061
     34 C21        27.0837    5.5821   39.5925 C.ar        1 XNC       0.0849
     35 C20        28.4628    5.3973   39.3613 C.ar        1 XNC      -0.0435
     36 C19        29.0757    4.1570   39.6066 C.ar        1 XNC      -0.0671
     37 O24        26.4098    6.7813   39.4365 O.3         1 XNC      -0.3110
     38 C25        27.0738    8.0692   39.3439 C.3         1 XNC       0.1027
     39 C26        27.5140    8.6192   40.6598 C.ar        1 XNC      -0.0131
     40 C31        28.7530    8.2399   41.2364 C.ar        1 XNC      -0.0578
     41 C30        29.1518    8.7310   42.4916 C.ar        1 XNC      -0.0685
     42 C29        28.3316    9.6397   43.1840 C.ar        1 XNC      -0.0687
     43 C28        27.1239   10.0723   42.6070 C.ar        1 XNC      -0.0685
     44 C27        26.7223    9.5677   41.3579 C.ar        1 XNC      -0.0578
     45 H1         34.0851    1.2850   40.7359 H           1 XNC       0.0705
     46 H2         36.0607    0.7907   39.4456 H           1 XNC       0.0729
     47 H3         35.8607    0.0285   37.1525 H           1 XNC       0.0684
     48 H4         32.5113   -0.4429   35.4819 H           1 XNC       0.0421
     49 H5         33.9848   -1.4153   35.6452 H           1 XNC       0.0421
     50 H6         34.0806    0.2657   35.0744 H           1 XNC       0.0421
     51 H7         31.8917    3.2249   37.9676 H           1 XNC       0.0382
     52 H8         31.6716    3.9682   35.6987 H           1 XNC       0.0451
     53 H9         29.3599    1.8037   41.1631 H           1 XNC       0.0812
     54 H10        26.3656   -2.1212   41.1855 H           1 XNC       0.0503
     55 H11        27.8903   -2.9152   41.5821 H           1 XNC       0.0503
     56 H12        29.2406   -3.0932   38.0602 H           1 XNC       0.0237
     57 H13        29.4199   -3.7588   39.6902 H           1 XNC       0.0237
     58 H14        29.8046   -2.0642   39.3799 H           1 XNC       0.0237
     59 H15        25.6865   -3.5244   39.2425 H           1 XNC       0.0237
     60 H16        27.0180   -4.5981   39.6941 H           1 XNC       0.0237
     61 H17        26.8735   -4.0167   38.0301 H           1 XNC       0.0237
     62 H18        26.1295   -1.0094   38.8636 H           1 XNC       0.0444
     63 H19        27.1271   -1.5735   37.5364 H           1 XNC       0.0444
     64 H20        27.5345    0.3643   36.8774 H           1 XNC       0.2009
     65 H21        27.1874    2.1636   35.3765 H           1 XNC       0.2432
     66 H22        29.8263    3.1946   34.3340 H           1 XNC       0.0389
     67 H23        25.3264    4.5555   40.1255 H           1 XNC       0.0510
     68 H24        29.0354    6.1670   39.0186 H           1 XNC       0.0491
     69 H25        30.0907    4.1133   39.5181 H           1 XNC       0.0520
     70 H26        26.3407    8.7540   38.9039 H           1 XNC       0.0776
     71 H27        27.9088    8.0331   38.6394 H           1 XNC       0.0776
     72 H28        29.3791    7.6039   40.7447 H           1 XNC       0.0557
     73 H29        30.0348    8.4255   42.9074 H           1 XNC       0.0599
     74 H30        28.6189    9.9905   44.1012 H           1 XNC       0.0559
     75 H31        26.5308   10.7337   43.1074 H           1 XNC       0.0599
     76 H32        25.8423    9.8992   40.9554 H           1 XNC       0.0557
@<TRIPOS>BOND
     1     1     2   2
     2     2     3   1
     3     2    10  am
     4     3     4  ar
     5     3     9  ar
     6     4     5  ar
     7     5     6  ar
     8     6     7  ar
     9     7     8   1
    10     7     9  ar
    11    10    11   1
    12    10    14   1
    13    11    12  ar
    14    11    26  ar
    15    12    13  ar
    16    13    29  ar
    17    14    15   1
    18    14    30   1
    19    15    16   1
    20    15    24   2
    21    16    17   2
    22    16    18   2
    23    16    19   1
    24    19    20   1
    25    20    21   1
    26    20    22   1
    27    20    23   1
    28    23    24   1
    29    24    25   1
    30    25    26   1
    31    26    27  ar
    32    27    28   1
    33    27    29  ar
    34    30    31  ar
    35    30    36  ar
    36    31    32   1
    37    31    33  ar
    38    33    34  ar
    39    34    35  ar
    40    34    37   1
    41    35    36  ar
    42    37    38   1
    43    38    39   1
    44    39    40  ar
    45    39    44  ar
    46    40    41  ar
    47    41    42  ar
    48    42    43  ar
    49    43    44  ar
    50     4    45   1
    51     5    46   1
    52     6    47   1
    53     8    48   1
    54     8    49   1
    55     8    50   1
    56    12    51   1
    57    13    52   1
    58    14    53   1
    59    19    54   1
    60    19    55   1
    61    21    56   1
    62    21    57   1
    63    21    58   1
    64    22    59   1
    65    22    60   1
    66    22    61   1
    67    23    62   1
    68    23    63   1
    69    25    64   1
    70    28    65   1
    71    29    66   1
    72    33    67   1
    73    35    68   1
    74    36    69   1
    75    38    70   1
    76    38    71   1
    77    40    72   1
    78    41    73   1
    79    42    74   1
    80    43    75   1
    81    44    76   1
@<TRIPOS>SUBSTRUCTURE
     1  XNC      2

