@<TRIPOS>MOLECULE
3gnw_ligand_084
    76    81
SMALL
GAST_HUCK
****
This file was generated by PARSER (from files_GN.cpp)

@<TRIPOS>ATOM
      1 O35        25.7394    2.1191   41.9202 O.2         1 XNC      -0.3687
      2 C16        26.0352    0.9939   41.5326 C.2         1 XNC       0.2510
      3 C17        25.3607   -0.0215   42.2134 C.ar        1 XNC       0.1194
      4 C43        24.7318   -1.1049   41.5553 C.ar        1 XNC      -0.0209
      5 C42        24.0089   -2.0486   42.3074 C.ar        1 XNC      -0.0435
      6 C41        23.9196   -1.9185   43.7044 C.ar        1 XNC      -0.0287
      7 C40        24.5528   -0.8283   44.3353 C.ar        1 XNC       0.0301
      8 C44        24.4870   -0.6415   45.7963 C.3         1 XNC      -0.0144
      9 N39        25.2294    0.0667   43.5671 N.ar        1 XNC      -0.2781
     10 N7         26.8921    0.8361   40.4944 N.am        1 XNC      -0.2078
     11 C4         27.4424   -0.4025   40.1902 C.ar        1 XNC       0.0880
     12 C3         28.0765   -1.1578   41.2094 C.ar        1 XNC      -0.0607
     13 C2         28.6869   -2.3874   40.9338 C.ar        1 XNC      -0.0955
     14 C8         27.3283    1.9714   39.6684 C.3         1 XNC       0.1162
     15 C9         26.4254    1.9889   38.4997 C.2         1 XNC       0.0894
     16 S12        25.5431    3.4453   38.2266 S.o2        1 XNC      -0.0239
     17 O32        26.5719    4.6214   37.9312 O.2         1 XNC      -0.1768
     18 O33        24.6985    3.8581   39.5093 O.2         1 XNC      -0.1768
     19 C13        24.4358    3.2751   36.8144 C.3         1 XNC       0.0705
     20 C14        24.9938    2.2580   35.7743 C.3         1 XNC      -0.0050
     21 C37        23.8784    1.9866   34.7089 C.3         1 XNC      -0.0565
     22 C38        26.2403    2.8236   35.0174 C.3         1 XNC      -0.0565
     23 C15        25.3478    0.9187   36.5125 C.3         1 XNC       0.0036
     24 C10        26.2914    0.9388   37.6479 C.2         1 XNC       0.0422
     25 N11        26.9413   -0.2343   37.7889 N.pl3       1 XNC      -0.2908
     26 C5         27.4869   -0.8818   38.8526 C.ar        1 XNC       0.1100
     27 C6         28.0881   -2.1392   38.5882 C.ar        1 XNC       0.0976
     28 O36        28.0979   -2.6460   37.3252 O.3         1 XNC      -0.3423
     29 C1         28.6816   -2.8841   39.6246 C.ar        1 XNC      -0.0580
     30 C18        28.8158    2.0449   39.3925 C.ar        1 XNC       0.0130
     31 C23        29.7552    1.7621   40.4221 C.ar        1 XNC       0.1283
     32 F34        29.3920    1.4824   41.6433 F           1 XNC      -0.1917
     33 C22        31.1376    1.7711   40.1785 C.ar        1 XNC      -0.0061
     34 C21        31.6320    2.1242   38.9111 C.ar        1 XNC       0.0849
     35 C20        30.7273    2.5252   37.9127 C.ar        1 XNC      -0.0435
     36 C19        29.3408    2.4721   38.1461 C.ar        1 XNC      -0.0671
     37 O24        32.9774    2.1173   38.6584 O.3         1 XNC      -0.3110
     38 C25        33.5699    0.8075   38.4913 C.3         1 XNC       0.1027
     39 C26        34.0067    0.5956   37.0872 C.ar        1 XNC      -0.0131
     40 C31        33.0519    0.5697   36.0419 C.ar        1 XNC      -0.0578
     41 C30        33.4472    0.3693   34.7068 C.ar        1 XNC      -0.0685
     42 C29        34.8046    0.1696   34.4012 C.ar        1 XNC      -0.0687
     43 C28        35.7641    0.1796   35.4273 C.ar        1 XNC      -0.0685
     44 C27        35.3688    0.3925   36.7607 C.ar        1 XNC      -0.0578
     45 H1         24.7570   -1.1905   40.5365 H           1 XNC       0.0705
     46 H2         23.5370   -2.8241   41.8373 H           1 XNC       0.0729
     47 H3         23.3931   -2.6064   44.2491 H           1 XNC       0.0684
     48 H4         25.0120    0.2659   46.1010 H           1 XNC       0.0421
     49 H5         24.9472   -1.4924   46.3004 H           1 XNC       0.0421
     50 H6         23.4466   -0.5610   46.1138 H           1 XNC       0.0421
     51 H7         28.1271   -0.8004   42.1664 H           1 XNC       0.0382
     52 H8         29.1231   -2.9225   41.6890 H           1 XNC       0.0451
     53 H9         27.1887    2.9047   40.2259 H           1 XNC       0.0812
     54 H10        24.2748    4.2580   36.3640 H           1 XNC       0.0503
     55 H11        23.4759    2.9212   37.1977 H           1 XNC       0.0503
     56 H12        24.2236    1.2784   33.9521 H           1 XNC       0.0237
     57 H13        23.5946    2.9128   34.2024 H           1 XNC       0.0237
     58 H14        22.9818    1.5696   35.1746 H           1 XNC       0.0237
     59 H15        27.0652    3.0185   35.6982 H           1 XNC       0.0237
     60 H16        25.9952    3.7597   34.5115 H           1 XNC       0.0237
     61 H17        26.5925    2.1140   34.2654 H           1 XNC       0.0237
     62 H18        25.7080    0.2243   35.7445 H           1 XNC       0.0444
     63 H19        24.4218    0.4838   36.9021 H           1 XNC       0.0444
     64 H20        26.9686   -0.7564   36.9727 H           1 XNC       0.2009
     65 H21        28.4578   -3.5578   37.3934 H           1 XNC       0.2432
     66 H22        29.1140   -3.7887   39.4311 H           1 XNC       0.0389
     67 H23        31.7893    1.5196   40.9271 H           1 XNC       0.0510
     68 H24        31.0768    2.8411   37.0051 H           1 XNC       0.0491
     69 H25        28.7213    2.7654   37.3924 H           1 XNC       0.0520
     70 H26        32.9156   -0.0228   38.7800 H           1 XNC       0.0776
     71 H27        34.4234    0.7702   39.1700 H           1 XNC       0.0776
     72 H28        32.0606    0.6943   36.2420 H           1 XNC       0.0557
     73 H29        32.7491    0.3645   33.9617 H           1 XNC       0.0599
     74 H30        35.0939    0.0170   33.4327 H           1 XNC       0.0559
     75 H31        36.7502    0.0310   35.2034 H           1 XNC       0.0599
     76 H32        36.0820    0.3922   37.4938 H           1 XNC       0.0557
@<TRIPOS>BOND
     1     1     2   2
     2     2     3   1
     3     2    10  am
     4     3     4  ar
     5     3     9  ar
     6     4     5  ar
     7     5     6  ar
     8     6     7  ar
     9     7     8   1
    10     7     9  ar
    11    10    11   1
    12    10    14   1
    13    11    12  ar
    14    11    26  ar
    15    12    13  ar
    16    13    29  ar
    17    14    15   1
    18    14    30   1
    19    15    16   1
    20    15    24   2
    21    16    17   2
    22    16    18   2
    23    16    19   1
    24    19    20   1
    25    20    21   1
    26    20    22   1
    27    20    23   1
    28    23    24   1
    29    24    25   1
    30    25    26   1
    31    26    27  ar
    32    27    28   1
    33    27    29  ar
    34    30    31  ar
    35    30    36  ar
    36    31    32   1
    37    31    33  ar
    38    33    34  ar
    39    34    35  ar
    40    34    37   1
    41    35    36  ar
    42    37    38   1
    43    38    39   1
    44    39    40  ar
    45    39    44  ar
    46    40    41  ar
    47    41    42  ar
    48    42    43  ar
    49    43    44  ar
    50     4    45   1
    51     5    46   1
    52     6    47   1
    53     8    48   1
    54     8    49   1
    55     8    50   1
    56    12    51   1
    57    13    52   1
    58    14    53   1
    59    19    54   1
    60    19    55   1
    61    21    56   1
    62    21    57   1
    63    21    58   1
    64    22    59   1
    65    22    60   1
    66    22    61   1
    67    23    62   1
    68    23    63   1
    69    25    64   1
    70    28    65   1
    71    29    66   1
    72    33    67   1
    73    35    68   1
    74    36    69   1
    75    38    70   1
    76    38    71   1
    77    40    72   1
    78    41    73   1
    79    42    74   1
    80    43    75   1
    81    44    76   1
@<TRIPOS>SUBSTRUCTURE
     1  XNC      2

