@<TRIPOS>MOLECULE
3gnw_ligand_028
    76    81
SMALL
GAST_HUCK
****
This file was generated by PARSER (from files_GN.cpp)

@<TRIPOS>ATOM
      1 O35        26.6379    8.4449   38.7334 O.2         1 XNC      -0.3687
      2 C16        27.7696    7.9793   38.6332 C.2         1 XNC       0.2510
      3 C17        28.4268    7.8601   39.8627 C.ar        1 XNC       0.1194
      4 C43        29.3170    6.7995   40.1632 C.ar        1 XNC      -0.0209
      5 C42        29.9515    6.7587   41.4185 C.ar        1 XNC      -0.0435
      6 C41        29.6858    7.7539   42.3763 C.ar        1 XNC      -0.0287
      7 C40        28.7610    8.7741   42.0724 C.ar        1 XNC       0.0301
      8 C44        28.4148    9.8087   43.0637 C.3         1 XNC      -0.0144
      9 N39        28.1835    8.7820   40.8413 N.ar        1 XNC      -0.2781
     10 N7         28.2400    7.6227   37.4085 N.am        1 XNC      -0.2078
     11 C4         29.5719    7.3061   37.1981 C.ar        1 XNC       0.0880
     12 C3         30.5775    8.2272   37.5850 C.ar        1 XNC      -0.0607
     13 C2         31.9386    7.9547   37.3630 C.ar        1 XNC      -0.0955
     14 C8         27.3533    7.5208   36.2384 C.3         1 XNC       0.1162
     15 C9         26.8911    6.1214   36.1932 C.2         1 XNC       0.0894
     16 S12        25.1936    5.8515   36.3427 S.o2        1 XNC      -0.0239
     17 O32        24.3854    6.6710   35.2440 O.2         1 XNC      -0.1768
     18 O33        24.7089    6.3441   37.7752 O.2         1 XNC      -0.1768
     19 C13        24.8035    4.0964   36.2229 C.3         1 XNC       0.0705
     20 C14        26.0240    3.2182   36.6383 C.3         1 XNC      -0.0050
     21 C37        26.2953    3.2923   38.1786 C.3         1 XNC      -0.0565
     22 C38        25.7061    1.7295   36.2754 C.3         1 XNC      -0.0565
     23 C15        27.2743    3.6994   35.8232 C.3         1 XNC       0.0036
     24 C10        27.7447    5.0702   36.0785 C.2         1 XNC       0.0422
     25 N11        29.0872    5.1773   36.0539 N.pl3       1 XNC      -0.2908
     26 C5         29.9554    6.1188   36.5119 C.ar        1 XNC       0.1100
     27 C6         31.3320    5.8637   36.2809 C.ar        1 XNC       0.0976
     28 O36        31.7586    4.7328   35.6634 O.3         1 XNC      -0.3423
     29 C1         32.3146    6.7771   36.7005 C.ar        1 XNC      -0.0580
     30 C18        27.8960    8.0904   34.9431 C.ar        1 XNC       0.0130
     31 C23        28.7633    9.2175   34.9732 C.ar        1 XNC       0.1283
     32 F34        29.1025    9.7832   36.1051 F           1 XNC      -0.1917
     33 C22        29.2996    9.7527   33.7846 C.ar        1 XNC      -0.0061
     34 C21        28.9594    9.2178   32.5289 C.ar        1 XNC       0.0849
     35 C20        28.0671    8.1256   32.4791 C.ar        1 XNC      -0.0435
     36 C19        27.5420    7.5748   33.6649 C.ar        1 XNC      -0.0671
     37 O24        29.5466    9.7898   31.4249 O.3         1 XNC      -0.3110
     38 C25        28.7491   10.0670   30.2571 C.3         1 XNC       0.1027
     39 C26        27.3947   10.6115   30.5427 C.ar        1 XNC      -0.0131
     40 C31        27.2574   11.7974   31.2987 C.ar        1 XNC      -0.0578
     41 C30        25.9827   12.2779   31.6588 C.ar        1 XNC      -0.0685
     42 C29        24.8297   11.5786   31.2564 C.ar        1 XNC      -0.0687
     43 C28        24.9517   10.4132   30.4753 C.ar        1 XNC      -0.0685
     44 C27        26.2262    9.9341   30.1191 C.ar        1 XNC      -0.0578
     45 H1         29.4872    6.0470   39.4931 H           1 XNC       0.0705
     46 H2         30.5933    5.9971   41.6405 H           1 XNC       0.0729
     47 H3         30.1489    7.7193   43.2876 H           1 XNC       0.0684
     48 H4         27.6814   10.5102   42.6595 H           1 XNC       0.0421
     49 H5         29.3101   10.3682   43.3426 H           1 XNC       0.0421
     50 H6         27.9933    9.3447   43.9555 H           1 XNC       0.0421
     51 H7         30.3255    9.1030   38.0468 H           1 XNC       0.0382
     52 H8         32.6519    8.6250   37.6577 H           1 XNC       0.0451
     53 H9         26.4863    8.1687   36.3892 H           1 XNC       0.0812
     54 H10        24.5314    3.8976   35.1825 H           1 XNC       0.0503
     55 H11        23.9309    3.8804   36.8445 H           1 XNC       0.0503
     56 H12        27.1440    2.6603   38.4489 H           1 XNC       0.0237
     57 H13        25.4216    2.9519   38.7407 H           1 XNC       0.0237
     58 H14        26.5239    4.3087   38.5000 H           1 XNC       0.0237
     59 H15        25.5361    1.6148   35.2030 H           1 XNC       0.0237
     60 H16        24.8105    1.3878   36.8001 H           1 XNC       0.0237
     61 H17        26.5348    1.0754   36.5570 H           1 XNC       0.0237
     62 H18        27.0494    3.6399   34.7535 H           1 XNC       0.0444
     63 H19        28.0814    2.9800   36.0070 H           1 XNC       0.0444
     64 H20        29.5260    4.4033   35.6722 H           1 XNC       0.2009
     65 H21        31.7114    4.0391   36.3553 H           1 XNC       0.2432
     66 H22        33.3042    6.5865   36.5284 H           1 XNC       0.0389
     67 H23        29.9391   10.5523   33.8285 H           1 XNC       0.0510
     68 H24        27.7887    7.7257   31.5837 H           1 XNC       0.0491
     69 H25        26.8796    6.7991   33.5747 H           1 XNC       0.0520
     70 H26        28.6919    9.1625   29.6482 H           1 XNC       0.0776
     71 H27        29.2955   10.8149   29.6701 H           1 XNC       0.0776
     72 H28        28.0874   12.3029   31.6163 H           1 XNC       0.0557
     73 H29        25.8947   13.1264   32.2224 H           1 XNC       0.0599
     74 H30        23.9051   11.9202   31.5275 H           1 XNC       0.0559
     75 H31        24.1162    9.9089   30.1728 H           1 XNC       0.0599
     76 H32        26.2934    9.0746   29.5678 H           1 XNC       0.0557
@<TRIPOS>BOND
     1     1     2   2
     2     2     3   1
     3     2    10  am
     4     3     4  ar
     5     3     9  ar
     6     4     5  ar
     7     5     6  ar
     8     6     7  ar
     9     7     8   1
    10     7     9  ar
    11    10    11   1
    12    10    14   1
    13    11    12  ar
    14    11    26  ar
    15    12    13  ar
    16    13    29  ar
    17    14    15   1
    18    14    30   1
    19    15    16   1
    20    15    24   2
    21    16    17   2
    22    16    18   2
    23    16    19   1
    24    19    20   1
    25    20    21   1
    26    20    22   1
    27    20    23   1
    28    23    24   1
    29    24    25   1
    30    25    26   1
    31    26    27  ar
    32    27    28   1
    33    27    29  ar
    34    30    31  ar
    35    30    36  ar
    36    31    32   1
    37    31    33  ar
    38    33    34  ar
    39    34    35  ar
    40    34    37   1
    41    35    36  ar
    42    37    38   1
    43    38    39   1
    44    39    40  ar
    45    39    44  ar
    46    40    41  ar
    47    41    42  ar
    48    42    43  ar
    49    43    44  ar
    50     4    45   1
    51     5    46   1
    52     6    47   1
    53     8    48   1
    54     8    49   1
    55     8    50   1
    56    12    51   1
    57    13    52   1
    58    14    53   1
    59    19    54   1
    60    19    55   1
    61    21    56   1
    62    21    57   1
    63    21    58   1
    64    22    59   1
    65    22    60   1
    66    22    61   1
    67    23    62   1
    68    23    63   1
    69    25    64   1
    70    28    65   1
    71    29    66   1
    72    33    67   1
    73    35    68   1
    74    36    69   1
    75    38    70   1
    76    38    71   1
    77    40    72   1
    78    41    73   1
    79    42    74   1
    80    43    75   1
    81    44    76   1
@<TRIPOS>SUBSTRUCTURE
     1  XNC      2

