@<TRIPOS>MOLECULE
3gnw_ligand_017
    76    81
SMALL
GAST_HUCK
****
This file was generated by PARSER (from files_GN.cpp)

@<TRIPOS>ATOM
      1 O35        30.7056    1.2990   37.6326 O.2         1 XNC      -0.3687
      2 C16        30.3713    2.4512   37.8845 C.2         1 XNC       0.2510
      3 C17        31.3007    3.3960   37.4775 C.ar        1 XNC       0.1194
      4 C43        31.0304    4.2899   36.4194 C.ar        1 XNC      -0.0209
      5 C42        32.0143    5.2180   36.0401 C.ar        1 XNC      -0.0435
      6 C41        33.2403    5.2684   36.7281 C.ar        1 XNC      -0.0287
      7 C40        33.4678    4.3659   37.7873 C.ar        1 XNC       0.0301
      8 C44        34.7340    4.3859   38.5383 C.3         1 XNC      -0.0144
      9 N39        32.5043    3.4608   38.1033 N.ar        1 XNC      -0.2781
     10 N7         29.1658    2.7427   38.4332 N.am        1 XNC      -0.2078
     11 C4         28.9332    4.0123   38.9143 C.ar        1 XNC       0.0880
     12 C3         29.7337    4.5064   39.9760 C.ar        1 XNC      -0.0607
     13 C2         29.5940    5.8296   40.4275 C.ar        1 XNC      -0.0955
     14 C8         28.0521    1.7843   38.4750 C.3         1 XNC       0.1162
     15 C9         27.1214    2.0055   37.3466 C.2         1 XNC       0.0894
     16 S12        26.7187    0.5912   36.4349 S.o2        1 XNC      -0.0239
     17 O32        25.9384   -0.4603   37.3425 O.2         1 XNC      -0.1768
     18 O33        28.0459   -0.1346   35.9308 O.2         1 XNC      -0.1768
     19 C13        25.7542    0.9763   34.9676 C.3         1 XNC       0.0705
     20 C14        25.9209    2.4750   34.5674 C.3         1 XNC      -0.0050
     21 C37        27.3331    2.7486   33.9482 C.3         1 XNC      -0.0565
     22 C38        24.8444    2.8140   33.4877 C.3         1 XNC      -0.0565
     23 C15        25.6832    3.3486   35.8472 C.3         1 XNC       0.0036
     24 C10        26.6850    3.2227   36.9227 C.2         1 XNC       0.0422
     25 N11        27.0243    4.4233   37.4380 N.pl3       1 XNC      -0.2908
     26 C5         27.9287    4.8430   38.3583 C.ar        1 XNC       0.1100
     27 C6         27.8392    6.1913   38.7842 C.ar        1 XNC       0.0976
     28 O36        26.9234    7.0371   38.2495 O.3         1 XNC      -0.3423
     29 C1         28.6556    6.6742   39.8207 C.ar        1 XNC      -0.0580
     30 C18        27.3569    1.5852   39.8145 C.ar        1 XNC       0.0130
     31 C23        27.5345    0.4054   40.5974 C.ar        1 XNC       0.1283
     32 F34        28.2554   -0.6032   40.1762 F           1 XNC      -0.1917
     33 C22        26.9218    0.2527   41.8565 C.ar        1 XNC      -0.0061
     34 C21        26.1370    1.2840   42.3972 C.ar        1 XNC       0.0849
     35 C20        25.8959    2.4303   41.6217 C.ar        1 XNC      -0.0435
     36 C19        26.4915    2.5723   40.3542 C.ar        1 XNC      -0.0671
     37 O24        25.5295    1.1703   43.6174 O.3         1 XNC      -0.3110
     38 C25        26.4238    1.2280   44.7499 C.3         1 XNC       0.1027
     39 C26        25.7510    1.5977   46.0225 C.ar        1 XNC      -0.0131
     40 C31        26.4846    1.5655   47.2348 C.ar        1 XNC      -0.0578
     41 C30        25.8850    1.9330   48.4546 C.ar        1 XNC      -0.0685
     42 C29        24.5453    2.3597   48.4785 C.ar        1 XNC      -0.0687
     43 C28        23.8087    2.4203   47.2829 C.ar        1 XNC      -0.0685
     44 C27        24.4055    2.0420   46.0665 C.ar        1 XNC      -0.0578
     45 H1         30.1464    4.2498   35.9045 H           1 XNC       0.0705
     46 H2         31.8475    5.8564   35.2570 H           1 XNC       0.0729
     47 H3         33.9554    5.9479   36.4532 H           1 XNC       0.0684
     48 H4         34.7378    3.6193   39.3143 H           1 XNC       0.0421
     49 H5         34.8653    5.3577   39.0126 H           1 XNC       0.0421
     50 H6         35.5741    4.2027   37.8663 H           1 XNC       0.0421
     51 H7         30.4332    3.9048   40.4161 H           1 XNC       0.0382
     52 H8         30.1804    6.1741   41.1891 H           1 XNC       0.0451
     53 H9         28.5091    0.8127   38.2855 H           1 XNC       0.0812
     54 H10        24.7082    0.7625   35.2048 H           1 XNC       0.0503
     55 H11        26.0554    0.3168   34.1485 H           1 XNC       0.0503
     56 H12        27.4301    3.7961   33.6544 H           1 XNC       0.0237
     57 H13        27.4987    2.1307   33.0643 H           1 XNC       0.0237
     58 H14        28.1372    2.5292   34.6506 H           1 XNC       0.0237
     59 H15        23.8405    2.6665   33.8836 H           1 XNC       0.0237
     60 H16        24.9592    2.1712   32.6160 H           1 XNC       0.0237
     61 H17        24.9265    3.8498   33.1573 H           1 XNC       0.0237
     62 H18        24.7162    3.0851   36.2839 H           1 XNC       0.0444
     63 H19        25.5900    4.3877   35.5167 H           1 XNC       0.0444
     64 H20        26.4592    5.1433   37.1241 H           1 XNC       0.2009
     65 H21        27.3400    7.3491   37.4197 H           1 XNC       0.2432
     66 H22        28.5697    7.6425   40.1385 H           1 XNC       0.0389
     67 H23        27.0503   -0.6082   42.3919 H           1 XNC       0.0510
     68 H24        25.2925    3.1680   41.9856 H           1 XNC       0.0491
     69 H25        26.2622    3.4063   39.8192 H           1 XNC       0.0520
     70 H26        27.2187    1.9582   44.5847 H           1 XNC       0.0776
     71 H27        26.8803    0.2444   44.8657 H           1 XNC       0.0776
     72 H28        27.4613    1.2643   47.2360 H           1 XNC       0.0557
     73 H29        26.4276    1.8996   49.3217 H           1 XNC       0.0599
     74 H30        24.1121    2.6377   49.3617 H           1 XNC       0.0559
     75 H31        22.8337    2.7333   47.2988 H           1 XNC       0.0599
     76 H32        23.8458    2.1112   45.2134 H           1 XNC       0.0557
@<TRIPOS>BOND
     1     1     2   2
     2     2     3   1
     3     2    10  am
     4     3     4  ar
     5     3     9  ar
     6     4     5  ar
     7     5     6  ar
     8     6     7  ar
     9     7     8   1
    10     7     9  ar
    11    10    11   1
    12    10    14   1
    13    11    12  ar
    14    11    26  ar
    15    12    13  ar
    16    13    29  ar
    17    14    15   1
    18    14    30   1
    19    15    16   1
    20    15    24   2
    21    16    17   2
    22    16    18   2
    23    16    19   1
    24    19    20   1
    25    20    21   1
    26    20    22   1
    27    20    23   1
    28    23    24   1
    29    24    25   1
    30    25    26   1
    31    26    27  ar
    32    27    28   1
    33    27    29  ar
    34    30    31  ar
    35    30    36  ar
    36    31    32   1
    37    31    33  ar
    38    33    34  ar
    39    34    35  ar
    40    34    37   1
    41    35    36  ar
    42    37    38   1
    43    38    39   1
    44    39    40  ar
    45    39    44  ar
    46    40    41  ar
    47    41    42  ar
    48    42    43  ar
    49    43    44  ar
    50     4    45   1
    51     5    46   1
    52     6    47   1
    53     8    48   1
    54     8    49   1
    55     8    50   1
    56    12    51   1
    57    13    52   1
    58    14    53   1
    59    19    54   1
    60    19    55   1
    61    21    56   1
    62    21    57   1
    63    21    58   1
    64    22    59   1
    65    22    60   1
    66    22    61   1
    67    23    62   1
    68    23    63   1
    69    25    64   1
    70    28    65   1
    71    29    66   1
    72    33    67   1
    73    35    68   1
    74    36    69   1
    75    38    70   1
    76    38    71   1
    77    40    72   1
    78    41    73   1
    79    42    74   1
    80    43    75   1
    81    44    76   1
@<TRIPOS>SUBSTRUCTURE
     1  XNC      2

