@<TRIPOS>MOLECULE
3gnw_ligand_042
    76    81
SMALL
GAST_HUCK
****
This file was generated by PARSER (from files_GN.cpp)

@<TRIPOS>ATOM
      1 O35        28.0271   -1.0815   35.0771 O.2         1 XNC      -0.3687
      2 C16        27.3125   -0.4758   35.8715 C.2         1 XNC       0.2510
      3 C17        26.5310    0.5066   35.2843 C.ar        1 XNC       0.1194
      4 C43        27.0193    1.4155   34.3163 C.ar        1 XNC      -0.0209
      5 C42        26.1470    2.3688   33.7586 C.ar        1 XNC      -0.0435
      6 C41        24.7874    2.3773   34.1228 C.ar        1 XNC      -0.0287
      7 C40        24.3234    1.4243   35.0550 C.ar        1 XNC       0.0301
      8 C44        22.9193    1.3649   35.4727 C.3         1 XNC      -0.0144
      9 N39        25.2079    0.5437   35.5899 N.ar        1 XNC      -0.2781
     10 N7         27.2519   -0.8677   37.1651 N.am        1 XNC      -0.2078
     11 C4         27.7454   -2.1152   37.5272 C.ar        1 XNC       0.0880
     12 C3         27.1977   -3.2680   36.9077 C.ar        1 XNC      -0.0607
     13 C2         27.5666   -4.5567   37.3150 C.ar        1 XNC      -0.0955
     14 C8         26.8958    0.0562   38.2559 C.3         1 XNC       0.1162
     15 C9         28.1515    0.7569   38.5857 C.2         1 XNC       0.0894
     16 S12        28.1676    2.4637   38.3420 S.o2        1 XNC      -0.0239
     17 O32        26.9285    3.1644   39.0529 O.2         1 XNC      -0.1768
     18 O33        28.0738    2.7920   36.7889 O.2         1 XNC      -0.1768
     19 C13        29.6966    3.1806   38.9612 C.3         1 XNC       0.0705
     20 C14        30.8641    2.1519   38.9012 C.3         1 XNC      -0.0050
     21 C37        31.3311    1.8973   37.4257 C.3         1 XNC      -0.0565
     22 C38        32.0775    2.7539   39.6847 C.3         1 XNC      -0.0565
     23 C15        30.4154    0.8150   39.5874 C.3         1 XNC       0.0036
     24 C10        29.2460    0.1013   39.0446 C.2         1 XNC       0.0422
     25 N11        29.2996   -1.2386   39.2253 N.pl3       1 XNC      -0.2908
     26 C5         28.6653   -2.2747   38.6016 C.ar        1 XNC       0.1100
     27 C6         28.9766   -3.5863   39.0420 C.ar        1 XNC       0.0976
     28 O36        29.7735   -3.7865   40.1170 O.3         1 XNC      -0.3423
     29 C1         28.4408   -4.7139   38.3955 C.ar        1 XNC      -0.0580
     30 C18        26.1388   -0.5263   39.4349 C.ar        1 XNC       0.0130
     31 C23        26.2802   -0.1021   40.7859 C.ar        1 XNC       0.1283
     32 F34        27.0707    0.8643   41.1566 F           1 XNC      -0.1917
     33 C22        25.5197   -0.6899   41.8175 C.ar        1 XNC      -0.0061
     34 C21        24.5584   -1.6809   41.5301 C.ar        1 XNC       0.0849
     35 C20        24.4032   -2.1085   40.1994 C.ar        1 XNC      -0.0435
     36 C19        25.1591   -1.5153   39.1736 C.ar        1 XNC      -0.0671
     37 O24        23.7432   -2.2165   42.4954 O.3         1 XNC      -0.3110
     38 C25        22.9150   -1.2652   43.2068 C.3         1 XNC       0.1027
     39 C26        21.8101   -1.8783   43.9879 C.ar        1 XNC      -0.0131
     40 C31        20.9545   -1.0300   44.7293 C.ar        1 XNC      -0.0578
     41 C30        19.8583   -1.5538   45.4387 C.ar        1 XNC      -0.0685
     42 C29        19.6044   -2.9349   45.4184 C.ar        1 XNC      -0.0687
     43 C28        20.4495   -3.7924   44.6921 C.ar        1 XNC      -0.0685
     44 C27        21.5482   -3.2672   43.9838 C.ar        1 XNC      -0.0578
     45 H1         28.0092    1.4182   34.0453 H           1 XNC       0.0705
     46 H2         26.5003    3.0575   33.0882 H           1 XNC       0.0729
     47 H3         24.1517    3.0642   33.7099 H           1 XNC       0.0684
     48 H4         22.7510    0.5495   36.1791 H           1 XNC       0.0421
     49 H5         22.2801    1.2007   34.6067 H           1 XNC       0.0421
     50 H6         22.6444    2.3041   35.9520 H           1 XNC       0.0421
     51 H7         26.5135   -3.1747   36.1550 H           1 XNC       0.0382
     52 H8         27.1716   -5.3768   36.8439 H           1 XNC       0.0451
     53 H9         26.1747    0.7873   37.8888 H           1 XNC       0.0812
     54 H10        29.5118    3.4810   39.9942 H           1 XNC       0.0503
     55 H11        29.9268    4.0796   38.3861 H           1 XNC       0.0503
     56 H12        32.1592    1.1863   37.4021 H           1 XNC       0.0237
     57 H13        31.6673    2.8260   36.9600 H           1 XNC       0.0237
     58 H14        30.5239    1.4913   36.8178 H           1 XNC       0.0237
     59 H15        31.8131    2.9416   40.7298 H           1 XNC       0.0237
     60 H16        32.3959    3.7020   39.2443 H           1 XNC       0.0237
     61 H17        32.9307    2.0715   39.6739 H           1 XNC       0.0237
     62 H18        30.1893    1.0165   40.6389 H           1 XNC       0.0444
     63 H19        31.2831    0.1465   39.5799 H           1 XNC       0.0444
     64 H20        29.9742   -1.5154   39.8688 H           1 XNC       0.2009
     65 H21        29.2976   -4.4345   40.6792 H           1 XNC       0.2432
     66 H22        28.6851   -5.6552   38.7124 H           1 XNC       0.0389
     67 H23        25.6414   -0.3783   42.7822 H           1 XNC       0.0510
     68 H24        23.7313   -2.8427   39.9678 H           1 XNC       0.0491
     69 H25        24.9911   -1.8328   38.2182 H           1 XNC       0.0520
     70 H26        22.4683   -0.5631   42.4979 H           1 XNC       0.0776
     71 H27        23.5439   -0.7045   43.8996 H           1 XNC       0.0776
     72 H28        21.1180   -0.0180   44.7518 H           1 XNC       0.0557
     73 H29        19.2450   -0.9301   45.9671 H           1 XNC       0.0599
     74 H30        18.8006   -3.3174   45.9224 H           1 XNC       0.0559
     75 H31        20.2657   -4.7959   44.6740 H           1 XNC       0.0599
     76 H32        22.1423   -3.9117   43.4569 H           1 XNC       0.0557
@<TRIPOS>BOND
     1     1     2   2
     2     2     3   1
     3     2    10  am
     4     3     4  ar
     5     3     9  ar
     6     4     5  ar
     7     5     6  ar
     8     6     7  ar
     9     7     8   1
    10     7     9  ar
    11    10    11   1
    12    10    14   1
    13    11    12  ar
    14    11    26  ar
    15    12    13  ar
    16    13    29  ar
    17    14    15   1
    18    14    30   1
    19    15    16   1
    20    15    24   2
    21    16    17   2
    22    16    18   2
    23    16    19   1
    24    19    20   1
    25    20    21   1
    26    20    22   1
    27    20    23   1
    28    23    24   1
    29    24    25   1
    30    25    26   1
    31    26    27  ar
    32    27    28   1
    33    27    29  ar
    34    30    31  ar
    35    30    36  ar
    36    31    32   1
    37    31    33  ar
    38    33    34  ar
    39    34    35  ar
    40    34    37   1
    41    35    36  ar
    42    37    38   1
    43    38    39   1
    44    39    40  ar
    45    39    44  ar
    46    40    41  ar
    47    41    42  ar
    48    42    43  ar
    49    43    44  ar
    50     4    45   1
    51     5    46   1
    52     6    47   1
    53     8    48   1
    54     8    49   1
    55     8    50   1
    56    12    51   1
    57    13    52   1
    58    14    53   1
    59    19    54   1
    60    19    55   1
    61    21    56   1
    62    21    57   1
    63    21    58   1
    64    22    59   1
    65    22    60   1
    66    22    61   1
    67    23    62   1
    68    23    63   1
    69    25    64   1
    70    28    65   1
    71    29    66   1
    72    33    67   1
    73    35    68   1
    74    36    69   1
    75    38    70   1
    76    38    71   1
    77    40    72   1
    78    41    73   1
    79    42    74   1
    80    43    75   1
    81    44    76   1
@<TRIPOS>SUBSTRUCTURE
     1  XNC      2

