@<TRIPOS>MOLECULE
3gnw_ligand_013
    76    81
SMALL
GAST_HUCK
****
This file was generated by PARSER (from files_GN.cpp)

@<TRIPOS>ATOM
      1 O35        29.1477    3.4776   36.5579 O.2         1 XNC      -0.3687
      2 C16        28.9984    3.9274   37.6908 C.2         1 XNC       0.2510
      3 C17        28.9724    5.3075   37.7570 C.ar        1 XNC       0.1194
      4 C43        30.1056    6.1106   37.5063 C.ar        1 XNC      -0.0209
      5 C42        29.9650    7.5118   37.5146 C.ar        1 XNC      -0.0435
      6 C41        28.7064    8.0938   37.7422 C.ar        1 XNC      -0.0287
      7 C40        27.5921    7.2614   37.9751 C.ar        1 XNC       0.0301
      8 C44        26.2425    7.8178   38.1866 C.3         1 XNC      -0.0144
      9 N39        27.7709    5.9145   37.9655 N.ar        1 XNC      -0.2781
     10 N7         28.8134    3.0983   38.7451 N.am        1 XNC      -0.2078
     11 C4         28.5210    1.7706   38.5194 C.ar        1 XNC       0.0880
     12 C3         27.3213    1.4491   37.8368 C.ar        1 XNC      -0.0607
     13 C2         26.9584    0.1138   37.6123 C.ar        1 XNC      -0.0955
     14 C8         29.0582    3.4935   40.1303 C.3         1 XNC       0.1162
     15 C9         30.4774    3.2279   40.4506 C.2         1 XNC       0.0894
     16 S12        31.3542    4.5293   41.1632 S.o2        1 XNC      -0.0239
     17 O32        30.6062    5.0104   42.4891 O.2         1 XNC      -0.1768
     18 O33        31.3451    5.7534   40.1394 O.2         1 XNC      -0.1768
     19 C13        33.0698    4.0825   41.4873 C.3         1 XNC       0.0705
     20 C14        33.5182    2.8541   40.6301 C.3         1 XNC      -0.0050
     21 C37        33.7275    3.2396   39.1271 C.3         1 XNC      -0.0565
     22 C38        34.8849    2.3350   41.1884 C.3         1 XNC      -0.0565
     23 C15        32.4321    1.7318   40.7703 C.3         1 XNC       0.0036
     24 C10        31.0892    2.0295   40.2385 C.2         1 XNC       0.0422
     25 N11        30.4846    0.9356   39.7321 N.pl3       1 XNC      -0.2908
     26 C5         29.3400    0.7272   39.0279 C.ar        1 XNC       0.1100
     27 C6         28.9657   -0.6218   38.7869 C.ar        1 XNC       0.0976
     28 O36        29.7230   -1.6756   39.2074 O.3         1 XNC      -0.3423
     29 C1         27.7848   -0.9206   38.0761 C.ar        1 XNC      -0.0580
     30 C18        28.0377    2.9710   41.1171 C.ar        1 XNC       0.0130
     31 C23        26.8115    3.6647   41.3171 C.ar        1 XNC       0.1283
     32 F34        26.5292    4.7572   40.6550 F           1 XNC      -0.1917
     33 C22        25.8586    3.2084   42.2502 C.ar        1 XNC      -0.0061
     34 C21        26.0875    2.0217   42.9734 C.ar        1 XNC       0.0849
     35 C20        27.2557    1.2809   42.7312 C.ar        1 XNC      -0.0435
     36 C19        28.2286    1.7697   41.8509 C.ar        1 XNC      -0.0671
     37 O24        25.1832    1.5750   43.9018 O.3         1 XNC      -0.3110
     38 C25        25.4000    2.0592   45.2473 C.3         1 XNC       0.1027
     39 C26        26.7967    1.8837   45.7407 C.ar        1 XNC      -0.0131
     40 C31        27.2315    0.6190   46.2051 C.ar        1 XNC      -0.0578
     41 C30        28.5850    0.3969   46.5202 C.ar        1 XNC      -0.0685
     42 C29        29.5237    1.4310   46.3616 C.ar        1 XNC      -0.0687
     43 C28        29.1031    2.6995   45.9212 C.ar        1 XNC      -0.0685
     44 C27        27.7480    2.9230   45.6146 C.ar        1 XNC      -0.0578
     45 H1         31.0166    5.6923   37.3036 H           1 XNC       0.0705
     46 H2         30.7740    8.1054   37.3204 H           1 XNC       0.0729
     47 H3         28.6053    9.1121   37.7370 H           1 XNC       0.0684
     48 H4         25.5040    7.0241   38.3107 H           1 XNC       0.0421
     49 H5         25.9497    8.4205   37.3255 H           1 XNC       0.0421
     50 H6         26.2382    8.4434   39.0804 H           1 XNC       0.0421
     51 H7         26.6968    2.1928   37.5089 H           1 XNC       0.0382
     52 H8         26.0875   -0.1045   37.1193 H           1 XNC       0.0451
     53 H9         28.9213    4.5759   40.2110 H           1 XNC       0.0812
     54 H10        33.1487    3.8453   42.5511 H           1 XNC       0.0503
     55 H11        33.7087    4.9465   41.2896 H           1 XNC       0.0503
     56 H12        34.0159    2.3616   38.5431 H           1 XNC       0.0237
     57 H13        34.5156    3.9887   39.0250 H           1 XNC       0.0237
     58 H14        32.8181    3.6501   38.6871 H           1 XNC       0.0237
     59 H15        34.7924    2.0293   42.2337 H           1 XNC       0.0237
     60 H16        35.6462    3.1172   41.1328 H           1 XNC       0.0237
     61 H17        35.2425    1.4751   40.6173 H           1 XNC       0.0237
     62 H18        32.3071    1.4914   41.8303 H           1 XNC       0.0444
     63 H19        32.8342    0.8270   40.2991 H           1 XNC       0.0444
     64 H20        30.9561    0.1157   39.9483 H           1 XNC       0.2009
     65 H21        30.0398   -1.4553   40.1115 H           1 XNC       0.2432
     66 H22        27.5157   -1.8950   37.9093 H           1 XNC       0.0389
     67 H23        24.9977    3.7441   42.4044 H           1 XNC       0.0510
     68 H24        27.4182    0.3976   43.2201 H           1 XNC       0.0491
     69 H25        29.0775    1.2151   41.7542 H           1 XNC       0.0520
     70 H26        24.7315    1.5041   45.9072 H           1 XNC       0.0776
     71 H27        25.0843    3.1054   45.2987 H           1 XNC       0.0776
     72 H28        26.5694   -0.1552   46.2845 H           1 XNC       0.0557
     73 H29        28.8920   -0.5254   46.8379 H           1 XNC       0.0599
     74 H30        30.5114    1.2633   46.5635 H           1 XNC       0.0559
     75 H31        29.7874    3.4482   45.7955 H           1 XNC       0.0599
     76 H32        27.4712    3.8369   45.2505 H           1 XNC       0.0557
@<TRIPOS>BOND
     1     1     2   2
     2     2     3   1
     3     2    10  am
     4     3     4  ar
     5     3     9  ar
     6     4     5  ar
     7     5     6  ar
     8     6     7  ar
     9     7     8   1
    10     7     9  ar
    11    10    11   1
    12    10    14   1
    13    11    12  ar
    14    11    26  ar
    15    12    13  ar
    16    13    29  ar
    17    14    15   1
    18    14    30   1
    19    15    16   1
    20    15    24   2
    21    16    17   2
    22    16    18   2
    23    16    19   1
    24    19    20   1
    25    20    21   1
    26    20    22   1
    27    20    23   1
    28    23    24   1
    29    24    25   1
    30    25    26   1
    31    26    27  ar
    32    27    28   1
    33    27    29  ar
    34    30    31  ar
    35    30    36  ar
    36    31    32   1
    37    31    33  ar
    38    33    34  ar
    39    34    35  ar
    40    34    37   1
    41    35    36  ar
    42    37    38   1
    43    38    39   1
    44    39    40  ar
    45    39    44  ar
    46    40    41  ar
    47    41    42  ar
    48    42    43  ar
    49    43    44  ar
    50     4    45   1
    51     5    46   1
    52     6    47   1
    53     8    48   1
    54     8    49   1
    55     8    50   1
    56    12    51   1
    57    13    52   1
    58    14    53   1
    59    19    54   1
    60    19    55   1
    61    21    56   1
    62    21    57   1
    63    21    58   1
    64    22    59   1
    65    22    60   1
    66    22    61   1
    67    23    62   1
    68    23    63   1
    69    25    64   1
    70    28    65   1
    71    29    66   1
    72    33    67   1
    73    35    68   1
    74    36    69   1
    75    38    70   1
    76    38    71   1
    77    40    72   1
    78    41    73   1
    79    42    74   1
    80    43    75   1
    81    44    76   1
@<TRIPOS>SUBSTRUCTURE
     1  XNC      2

