@<TRIPOS>MOLECULE
3gnw_ligand_039
    76    81
SMALL
GAST_HUCK
****
This file was generated by PARSER (from files_GN.cpp)

@<TRIPOS>ATOM
      1 O35        29.6389    2.9685   35.9409 O.2         1 XNC      -0.3687
      2 C16        28.5584    3.1793   36.4834 C.2         1 XNC       0.2510
      3 C17        27.4851    3.2340   35.6023 C.ar        1 XNC       0.1194
      4 C43        27.5117    3.9967   34.4138 C.ar        1 XNC      -0.0209
      5 C42        26.3852    4.0030   33.5679 C.ar        1 XNC      -0.0435
      6 C41        25.2656    3.2135   33.8856 C.ar        1 XNC      -0.0287
      7 C40        25.2920    2.4161   35.0458 C.ar        1 XNC       0.0301
      8 C44        24.1712    1.5194   35.3868 C.3         1 XNC      -0.0144
      9 N39        26.3896    2.4656   35.8506 N.ar        1 XNC      -0.2781
     10 N7         28.4889    3.3046   37.8299 N.am        1 XNC      -0.2078
     11 C4         29.5745    2.9175   38.6147 C.ar        1 XNC       0.0880
     12 C3         30.0518    1.5872   38.5085 C.ar        1 XNC      -0.0607
     13 C2         31.1137    1.1284   39.3025 C.ar        1 XNC      -0.0955
     14 C8         27.3982    4.0175   38.5002 C.3         1 XNC       0.1162
     15 C9         27.7963    5.4427   38.5318 C.2         1 XNC       0.0894
     16 S12        26.7362    6.5661   37.7469 S.o2        1 XNC      -0.0239
     17 O32        25.2320    6.3897   38.2235 O.2         1 XNC      -0.1768
     18 O33        26.7602    6.3141   36.1855 O.2         1 XNC      -0.1768
     19 C13        27.2851    8.2650   38.0330 C.3         1 XNC       0.0705
     20 C14        28.8311    8.3214   38.2372 C.3         1 XNC      -0.0050
     21 C37        29.6012    8.0050   36.9120 C.3         1 XNC      -0.0565
     22 C38        29.2332    9.7693   38.6781 C.3         1 XNC      -0.0565
     23 C15        29.2097    7.3087   39.3729 C.3         1 XNC       0.0036
     24 C10        28.9170    5.8798   39.1528 C.2         1 XNC       0.0422
     25 N11        29.8014    5.0750   39.7718 N.pl3       1 XNC      -0.2908
     26 C5         30.1533    3.7790   39.5874 C.ar        1 XNC       0.1100
     27 C6         31.2023    3.2909   40.4076 C.ar        1 XNC       0.0976
     28 O36        31.7793    4.0765   41.3545 O.3         1 XNC      -0.3423
     29 C1         31.6894    1.9818   40.2564 C.ar        1 XNC      -0.0580
     30 C18        26.9285    3.4276   39.8180 C.ar        1 XNC       0.0130
     31 C23        26.4493    4.1930   40.9107 C.ar        1 XNC       0.1283
     32 F34        26.3308    5.4948   40.8849 F           1 XNC      -0.1917
     33 C22        26.0227    3.5742   42.1025 C.ar        1 XNC      -0.0061
     34 C21        26.0848    2.1772   42.2508 C.ar        1 XNC       0.0849
     35 C20        26.4543    1.3989   41.1421 C.ar        1 XNC      -0.0435
     36 C19        26.8546    2.0108   39.9420 C.ar        1 XNC      -0.0671
     37 O24        25.6444    1.6055   43.4231 O.3         1 XNC      -0.3110
     38 C25        26.6103    0.8631   44.2097 C.3         1 XNC       0.1027
     39 C26        27.5708    1.6372   45.0478 C.ar        1 XNC      -0.0131
     40 C31        28.5410    0.9365   45.8025 C.ar        1 XNC      -0.0578
     41 C30        29.4779    1.6266   46.5960 C.ar        1 XNC      -0.0685
     42 C29        29.4490    3.0294   46.6624 C.ar        1 XNC      -0.0687
     43 C28        28.4800    3.7414   45.9389 C.ar        1 XNC      -0.0685
     44 C27        27.5465    3.0483   45.1527 C.ar        1 XNC      -0.0578
     45 H1         28.3192    4.5823   34.1783 H           1 XNC       0.0705
     46 H2         26.3842    4.5773   32.7228 H           1 XNC       0.0729
     47 H3         24.4541    3.2087   33.2616 H           1 XNC       0.0684
     48 H4         24.4173    0.8911   36.2456 H           1 XNC       0.0421
     49 H5         23.9473    0.8684   34.5389 H           1 XNC       0.0421
     50 H6         23.2830    2.1074   35.6258 H           1 XNC       0.0421
     51 H7         29.6138    0.9369   37.8524 H           1 XNC       0.0382
     52 H8         31.4624    0.1732   39.1910 H           1 XNC       0.0451
     53 H9         26.4877    3.9308   37.9062 H           1 XNC       0.0812
     54 H10        26.7722    8.6264   38.9291 H           1 XNC       0.0503
     55 H11        26.9695    8.8903   37.1932 H           1 XNC       0.0503
     56 H12        30.6793    8.0705   37.0688 H           1 XNC       0.0237
     57 H13        29.3266    8.7136   36.1276 H           1 XNC       0.0237
     58 H14        29.3816    7.0000   36.5485 H           1 XNC       0.0237
     59 H15        28.7527   10.0406   39.6199 H           1 XNC       0.0237
     60 H16        28.9411   10.5024   37.9233 H           1 XNC       0.0237
     61 H17        30.3134    9.8436   38.8213 H           1 XNC       0.0237
     62 H18        28.6894    7.5956   40.2930 H           1 XNC       0.0444
     63 H19        30.2788    7.4397   39.5725 H           1 XNC       0.0444
     64 H20        30.3530    5.5367   40.4217 H           1 XNC       0.2009
     65 H21        31.4444    3.7276   42.2068 H           1 XNC       0.2432
     66 H22        32.4624    1.6438   40.8348 H           1 XNC       0.0389
     67 H23        25.6567    4.1559   42.8592 H           1 XNC       0.0510
     68 H24        26.4213    0.3765   41.1967 H           1 XNC       0.0491
     69 H25        27.1039    1.4066   39.1590 H           1 XNC       0.0520
     70 H26        27.1803    0.1789   43.5743 H           1 XNC       0.0776
     71 H27        26.0239    0.2371   44.8857 H           1 XNC       0.0776
     72 H28        28.5694   -0.0831   45.7856 H           1 XNC       0.0557
     73 H29        30.1748    1.1072   47.1321 H           1 XNC       0.0599
     74 H30        30.1213    3.5324   47.2432 H           1 XNC       0.0559
     75 H31        28.4445    4.7628   45.9902 H           1 XNC       0.0599
     76 H32        26.8389    3.5927   44.6815 H           1 XNC       0.0557
@<TRIPOS>BOND
     1     1     2   2
     2     2     3   1
     3     2    10  am
     4     3     4  ar
     5     3     9  ar
     6     4     5  ar
     7     5     6  ar
     8     6     7  ar
     9     7     8   1
    10     7     9  ar
    11    10    11   1
    12    10    14   1
    13    11    12  ar
    14    11    26  ar
    15    12    13  ar
    16    13    29  ar
    17    14    15   1
    18    14    30   1
    19    15    16   1
    20    15    24   2
    21    16    17   2
    22    16    18   2
    23    16    19   1
    24    19    20   1
    25    20    21   1
    26    20    22   1
    27    20    23   1
    28    23    24   1
    29    24    25   1
    30    25    26   1
    31    26    27  ar
    32    27    28   1
    33    27    29  ar
    34    30    31  ar
    35    30    36  ar
    36    31    32   1
    37    31    33  ar
    38    33    34  ar
    39    34    35  ar
    40    34    37   1
    41    35    36  ar
    42    37    38   1
    43    38    39   1
    44    39    40  ar
    45    39    44  ar
    46    40    41  ar
    47    41    42  ar
    48    42    43  ar
    49    43    44  ar
    50     4    45   1
    51     5    46   1
    52     6    47   1
    53     8    48   1
    54     8    49   1
    55     8    50   1
    56    12    51   1
    57    13    52   1
    58    14    53   1
    59    19    54   1
    60    19    55   1
    61    21    56   1
    62    21    57   1
    63    21    58   1
    64    22    59   1
    65    22    60   1
    66    22    61   1
    67    23    62   1
    68    23    63   1
    69    25    64   1
    70    28    65   1
    71    29    66   1
    72    33    67   1
    73    35    68   1
    74    36    69   1
    75    38    70   1
    76    38    71   1
    77    40    72   1
    78    41    73   1
    79    42    74   1
    80    43    75   1
    81    44    76   1
@<TRIPOS>SUBSTRUCTURE
     1  XNC      2

