@<TRIPOS>MOLECULE
3gnw_ligand_012
    76    81
SMALL
GAST_HUCK
****
This file was generated by PARSER (from files_GN.cpp)

@<TRIPOS>ATOM
      1 O35        28.5714    0.3114   34.4850 O.2         1 XNC      -0.3687
      2 C16        28.9183    1.2096   35.2512 C.2         1 XNC       0.2510
      3 C17        30.3301    1.3711   35.3069 C.ar        1 XNC       0.1194
      4 C43        31.2652    0.4729   34.7155 C.ar        1 XNC      -0.0209
      5 C42        32.6552    0.6831   34.8353 C.ar        1 XNC      -0.0435
      6 C41        33.1393    1.7930   35.5480 C.ar        1 XNC      -0.0287
      7 C40        32.2133    2.6948   36.1036 C.ar        1 XNC       0.0301
      8 C44        32.6173    3.8563   36.9143 C.3         1 XNC      -0.0144
      9 N39        30.8889    2.4369   35.9404 N.ar        1 XNC      -0.2781
     10 N7         27.9069    1.8599   35.9127 N.am        1 XNC      -0.2078
     11 C4         26.5767    1.7228   35.4843 C.ar        1 XNC       0.0880
     12 C3         26.2785    1.9591   34.1158 C.ar        1 XNC      -0.0607
     13 C2         24.9676    1.8840   33.6227 C.ar        1 XNC      -0.0955
     14 C8         28.0792    2.6940   37.1102 C.3         1 XNC       0.1162
     15 C9         27.8516    1.8305   38.2853 C.2         1 XNC       0.0894
     16 S12        29.2152    1.5038   39.2929 S.o2        1 XNC      -0.0239
     17 O32        29.8850    2.8472   39.8209 O.2         1 XNC      -0.1768
     18 O33        30.2915    0.7248   38.4183 O.2         1 XNC      -0.1768
     19 C13        28.7676    0.4281   40.6699 C.3         1 XNC       0.0705
     20 C14        27.5292   -0.4541   40.3188 C.3         1 XNC      -0.0050
     21 C37        27.8841   -1.5596   39.2679 C.3         1 XNC      -0.0565
     22 C38        27.0408   -1.1718   41.6192 C.3         1 XNC      -0.0565
     23 C15        26.3966    0.4922   39.7888 C.3         1 XNC       0.0036
     24 C10        26.6687    1.2086   38.5301 C.2         1 XNC       0.0422
     25 N11        25.6077    1.2555   37.7102 N.pl3       1 XNC      -0.2908
     26 C5         25.4881    1.4610   36.3723 C.ar        1 XNC       0.1100
     27 C6         24.1648    1.3777   35.8602 C.ar        1 XNC       0.0976
     28 O36        23.0836    1.1089   36.6444 O.3         1 XNC      -0.3423
     29 C1         23.9145    1.5847   34.4949 C.ar        1 XNC      -0.0580
     30 C18        27.4205    4.0587   37.0840 C.ar        1 XNC       0.0130
     31 C23        27.5038    4.8685   35.9160 C.ar        1 XNC       0.1283
     32 F34        28.0707    4.4414   34.8176 F           1 XNC      -0.1917
     33 C22        27.0508    6.2013   35.9138 C.ar        1 XNC      -0.0061
     34 C21        26.6044    6.8078   37.1003 C.ar        1 XNC       0.0849
     35 C20        26.5040    6.0241   38.2672 C.ar        1 XNC      -0.0435
     36 C19        26.8934    4.6690   38.2549 C.ar        1 XNC      -0.0671
     37 O24        26.3168    8.1517   37.1112 O.3         1 XNC      -0.3110
     38 C25        27.3597    9.0118   37.6404 C.3         1 XNC       0.1027
     39 C26        27.9985    9.8436   36.5819 C.ar        1 XNC      -0.0131
     40 C31        28.7131    9.2308   35.5251 C.ar        1 XNC      -0.0578
     41 C30        29.2785    9.9986   34.4896 C.ar        1 XNC      -0.0685
     42 C29        29.1797   11.4003   34.5186 C.ar        1 XNC      -0.0687
     43 C28        28.5251   12.0316   35.5904 C.ar        1 XNC      -0.0685
     44 C27        27.9376   11.2594   36.6124 C.ar        1 XNC      -0.0578
     45 H1         30.9529   -0.3495   34.2019 H           1 XNC       0.0705
     46 H2         33.3168    0.0218   34.4111 H           1 XNC       0.0729
     47 H3         34.1484    1.9348   35.6562 H           1 XNC       0.0684
     48 H4         31.7437    4.4204   37.2441 H           1 XNC       0.0421
     49 H5         33.2606    4.5206   36.3386 H           1 XNC       0.0421
     50 H6         33.1542    3.5168   37.8001 H           1 XNC       0.0421
     51 H7         27.0230    2.2002   33.4573 H           1 XNC       0.0382
     52 H8         24.7829    2.0521   32.6324 H           1 XNC       0.0451
     53 H9         29.1046    3.0267   37.1787 H           1 XNC       0.0812
     54 H10        28.5413    1.0737   41.5214 H           1 XNC       0.0503
     55 H11        29.6284   -0.1866   40.9358 H           1 XNC       0.0503
     56 H12        27.0111   -2.1800   39.0539 H           1 XNC       0.0237
     57 H13        28.6795   -2.2071   39.6441 H           1 XNC       0.0237
     58 H14        28.2233   -1.1287   38.3254 H           1 XNC       0.0237
     59 H15        26.7874   -0.4495   42.3991 H           1 XNC       0.0237
     60 H16        27.8208   -1.8306   42.0051 H           1 XNC       0.0237
     61 H17        26.1536   -1.7792   41.4233 H           1 XNC       0.0237
     62 H18        26.1802    1.2515   40.5473 H           1 XNC       0.0444
     63 H19        25.4882   -0.1149   39.6889 H           1 XNC       0.0444
     64 H20        24.7701    1.0447   38.1586 H           1 XNC       0.2009
     65 H21        23.2497    0.2208   37.0253 H           1 XNC       0.2432
     66 H22        22.9610    1.5172   34.1316 H           1 XNC       0.0389
     67 H23        27.1012    6.7533   35.0545 H           1 XNC       0.0510
     68 H24        26.1869    6.4530   39.1403 H           1 XNC       0.0491
     69 H25        26.8538    4.1529   39.1370 H           1 XNC       0.0520
     70 H26        28.1463    8.4680   38.1751 H           1 XNC       0.0776
     71 H27        26.8741    9.6511   38.3803 H           1 XNC       0.0776
     72 H28        28.8360    8.2181   35.5027 H           1 XNC       0.0557
     73 H29        29.7708    9.5374   33.7200 H           1 XNC       0.0599
     74 H30        29.5915   11.9581   33.7670 H           1 XNC       0.0559
     75 H31        28.4734   13.0528   35.6240 H           1 XNC       0.0599
     76 H32        27.4564   11.7428   37.3753 H           1 XNC       0.0557
@<TRIPOS>BOND
     1     1     2   2
     2     2     3   1
     3     2    10  am
     4     3     4  ar
     5     3     9  ar
     6     4     5  ar
     7     5     6  ar
     8     6     7  ar
     9     7     8   1
    10     7     9  ar
    11    10    11   1
    12    10    14   1
    13    11    12  ar
    14    11    26  ar
    15    12    13  ar
    16    13    29  ar
    17    14    15   1
    18    14    30   1
    19    15    16   1
    20    15    24   2
    21    16    17   2
    22    16    18   2
    23    16    19   1
    24    19    20   1
    25    20    21   1
    26    20    22   1
    27    20    23   1
    28    23    24   1
    29    24    25   1
    30    25    26   1
    31    26    27  ar
    32    27    28   1
    33    27    29  ar
    34    30    31  ar
    35    30    36  ar
    36    31    32   1
    37    31    33  ar
    38    33    34  ar
    39    34    35  ar
    40    34    37   1
    41    35    36  ar
    42    37    38   1
    43    38    39   1
    44    39    40  ar
    45    39    44  ar
    46    40    41  ar
    47    41    42  ar
    48    42    43  ar
    49    43    44  ar
    50     4    45   1
    51     5    46   1
    52     6    47   1
    53     8    48   1
    54     8    49   1
    55     8    50   1
    56    12    51   1
    57    13    52   1
    58    14    53   1
    59    19    54   1
    60    19    55   1
    61    21    56   1
    62    21    57   1
    63    21    58   1
    64    22    59   1
    65    22    60   1
    66    22    61   1
    67    23    62   1
    68    23    63   1
    69    25    64   1
    70    28    65   1
    71    29    66   1
    72    33    67   1
    73    35    68   1
    74    36    69   1
    75    38    70   1
    76    38    71   1
    77    40    72   1
    78    41    73   1
    79    42    74   1
    80    43    75   1
    81    44    76   1
@<TRIPOS>SUBSTRUCTURE
     1  XNC      2

