@<TRIPOS>MOLECULE
3gnw_ligand_000
    76    81
SMALL
GAST_HUCK
****
This file was generated by PARSER (from files_GN.cpp)

@<TRIPOS>ATOM
      1 O35        30.3262    0.5999   38.4023 O.2         1 XNC      -0.3687
      2 C16        29.6033    1.5779   38.2555 C.2         1 XNC       0.2510
      3 C17        29.1905    2.1145   39.4646 C.ar        1 XNC       0.1194
      4 C43        29.9106    3.1586   40.0821 C.ar        1 XNC      -0.0209
      5 C42        29.4760    3.6381   41.3265 C.ar        1 XNC      -0.0435
      6 C41        28.3403    3.0789   41.9440 C.ar        1 XNC      -0.0287
      7 C40        27.6487    2.0349   41.2961 C.ar        1 XNC       0.0301
      8 C44        26.4475    1.4327   41.9052 C.3         1 XNC      -0.0144
      9 N39        28.1021    1.5910   40.0912 N.ar        1 XNC      -0.2781
     10 N7         29.2987    2.0683   37.0311 N.am        1 XNC      -0.2078
     11 C4         29.8786    1.4975   35.9147 C.ar        1 XNC       0.0880
     12 C3         31.2862    1.5156   35.7786 C.ar        1 XNC      -0.0607
     13 C2         31.9157    0.8944   34.6888 C.ar        1 XNC      -0.0955
     14 C8         28.2909    3.0963   36.7925 C.3         1 XNC       0.1162
     15 C9         26.9742    2.4707   36.5315 C.2         1 XNC       0.0894
     16 S12        25.6297    3.2085   37.3364 S.o2        1 XNC      -0.0239
     17 O32        25.5423    4.7381   36.9058 O.2         1 XNC      -0.1768
     18 O33        25.7945    3.1775   38.9181 O.2         1 XNC      -0.1768
     19 C13        24.0862    2.3965   36.8908 C.3         1 XNC       0.0705
     20 C14        24.1726    1.8134   35.4537 C.3         1 XNC      -0.0050
     21 C37        22.8797    0.9737   35.1924 C.3         1 XNC      -0.0565
     22 C38        24.2339    2.9336   34.3637 C.3         1 XNC      -0.0565
     23 C15        25.4313    0.8819   35.3737 C.3         1 XNC       0.0036
     24 C10        26.7671    1.4510   35.6532 C.2         1 XNC       0.0422
     25 N11        27.7297    0.8480   34.9201 N.pl3       1 XNC      -0.2908
     26 C5         29.0887    0.8886   34.9081 C.ar        1 XNC       0.1100
     27 C6         29.7358    0.2564   33.8164 C.ar        1 XNC       0.0976
     28 O36        29.0114   -0.3254   32.8174 O.3         1 XNC      -0.3423
     29 C1         31.1386    0.2668   33.7045 C.ar        1 XNC      -0.0580
     30 C18        28.7209    4.1734   35.8233 C.ar        1 XNC       0.0130
     31 C23        29.4058    5.3373   36.2789 C.ar        1 XNC       0.1283
     32 F34        29.6875    5.5006   37.5476 F           1 XNC      -0.1917
     33 C22        29.7883    6.3614   35.3862 C.ar        1 XNC      -0.0061
     34 C21        29.5043    6.2505   34.0143 C.ar        1 XNC       0.0849
     35 C20        28.8914    5.0839   33.5361 C.ar        1 XNC      -0.0435
     36 C19        28.4998    4.0667   34.4261 C.ar        1 XNC      -0.0671
     37 O24        29.8059    7.2188   33.1051 O.3         1 XNC      -0.3110
     38 C25        29.1661    8.4955   33.3165 C.3         1 XNC       0.1027
     39 C26        28.6427    8.9825   32.0163 C.ar        1 XNC      -0.0131
     40 C31        27.5009    8.3716   31.4445 C.ar        1 XNC      -0.0578
     41 C30        27.0143    8.7849   30.1901 C.ar        1 XNC      -0.0685
     42 C29        27.6686    9.8122   29.4886 C.ar        1 XNC      -0.0687
     43 C28        28.7980   10.4351   30.0505 C.ar        1 XNC      -0.0685
     44 C27        29.2752   10.0310   31.3109 C.ar        1 XNC      -0.0578
     45 H1         30.7422    3.5566   39.6442 H           1 XNC       0.0705
     46 H2         29.9876    4.3902   41.7900 H           1 XNC       0.0729
     47 H3         28.0268    3.4301   42.8495 H           1 XNC       0.0684
     48 H4         26.0341    0.6456   41.2686 H           1 XNC       0.0421
     49 H5         25.6854    2.2019   42.0435 H           1 XNC       0.0421
     50 H6         26.6992    1.0000   42.8745 H           1 XNC       0.0421
     51 H7         31.8693    1.9610   36.4915 H           1 XNC       0.0382
     52 H8         32.9349    0.8984   34.6068 H           1 XNC       0.0451
     53 H9         28.1624    3.6520   37.7220 H           1 XNC       0.0812
     54 H10        23.2721    3.1140   36.9823 H           1 XNC       0.0503
     55 H11        23.9143    1.5978   37.6137 H           1 XNC       0.0503
     56 H12        22.8893    0.5439   34.1898 H           1 XNC       0.0237
     57 H13        21.9882    1.5961   35.2750 H           1 XNC       0.0237
     58 H14        22.7877    0.1515   35.9081 H           1 XNC       0.0237
     59 H15        25.1256    3.5493   34.4616 H           1 XNC       0.0237
     60 H16        23.3632    3.5878   34.4344 H           1 XNC       0.0237
     61 H17        24.2494    2.4946   33.3612 H           1 XNC       0.0237
     62 H18        25.4154    0.4322   34.3751 H           1 XNC       0.0444
     63 H19        25.3079    0.0557   36.0806 H           1 XNC       0.0444
     64 H20        27.3684    0.2634   34.2324 H           1 XNC       0.2009
     65 H21        29.5543   -1.0962   32.5063 H           1 XNC       0.2432
     66 H22        31.5961   -0.1725   32.9049 H           1 XNC       0.0389
     67 H23        30.2546    7.2044   35.7398 H           1 XNC       0.0510
     68 H24        28.7074    4.9772   32.5332 H           1 XNC       0.0491
     69 H25        28.0450    3.2502   34.0283 H           1 XNC       0.0520
     70 H26        29.9217    9.1811   33.7244 H           1 XNC       0.0776
     71 H27        28.3357    8.4738   34.0319 H           1 XNC       0.0776
     72 H28        27.0173    7.6143   31.9351 H           1 XNC       0.0557
     73 H29        26.1913    8.3332   29.7828 H           1 XNC       0.0599
     74 H30        27.3224   10.1083   28.5723 H           1 XNC       0.0559
     75 H31        29.2787   11.1808   29.5414 H           1 XNC       0.0599
     76 H32        30.0948   10.4946   31.7026 H           1 XNC       0.0557
@<TRIPOS>BOND
     1     1     2   2
     2     2     3   1
     3     2    10  am
     4     3     4  ar
     5     3     9  ar
     6     4     5  ar
     7     5     6  ar
     8     6     7  ar
     9     7     8   1
    10     7     9  ar
    11    10    11   1
    12    10    14   1
    13    11    12  ar
    14    11    26  ar
    15    12    13  ar
    16    13    29  ar
    17    14    15   1
    18    14    30   1
    19    15    16   1
    20    15    24   2
    21    16    17   2
    22    16    18   2
    23    16    19   1
    24    19    20   1
    25    20    21   1
    26    20    22   1
    27    20    23   1
    28    23    24   1
    29    24    25   1
    30    25    26   1
    31    26    27  ar
    32    27    28   1
    33    27    29  ar
    34    30    31  ar
    35    30    36  ar
    36    31    32   1
    37    31    33  ar
    38    33    34  ar
    39    34    35  ar
    40    34    37   1
    41    35    36  ar
    42    37    38   1
    43    38    39   1
    44    39    40  ar
    45    39    44  ar
    46    40    41  ar
    47    41    42  ar
    48    42    43  ar
    49    43    44  ar
    50     4    45   1
    51     5    46   1
    52     6    47   1
    53     8    48   1
    54     8    49   1
    55     8    50   1
    56    12    51   1
    57    13    52   1
    58    14    53   1
    59    19    54   1
    60    19    55   1
    61    21    56   1
    62    21    57   1
    63    21    58   1
    64    22    59   1
    65    22    60   1
    66    22    61   1
    67    23    62   1
    68    23    63   1
    69    25    64   1
    70    28    65   1
    71    29    66   1
    72    33    67   1
    73    35    68   1
    74    36    69   1
    75    38    70   1
    76    38    71   1
    77    40    72   1
    78    41    73   1
    79    42    74   1
    80    43    75   1
    81    44    76   1
@<TRIPOS>SUBSTRUCTURE
     1  XNC      2

