@<TRIPOS>MOLECULE
3gnw_ligand_006
    76    81
SMALL
GAST_HUCK
****
This file was generated by PARSER (from files_GN.cpp)

@<TRIPOS>ATOM
      1 O35        37.5543    4.3618   39.5276 O.2         1 XNC      -0.3687
      2 C16        36.6625    3.7592   38.9396 C.2         1 XNC       0.2510
      3 C17        36.8991    3.5629   37.5846 C.ar        1 XNC       0.1194
      4 C43        36.9719    2.2679   37.0147 C.ar        1 XNC      -0.0209
      5 C42        37.1242    2.1329   35.6244 C.ar        1 XNC      -0.0435
      6 C41        37.2075    3.2788   34.8108 C.ar        1 XNC      -0.0287
      7 C40        37.1535    4.5568   35.4082 C.ar        1 XNC       0.0301
      8 C44        37.2146    5.7815   34.5897 C.3         1 XNC      -0.0144
      9 N39        37.0041    4.6426   36.7592 N.ar        1 XNC      -0.2781
     10 N7         35.5745    3.3013   39.6016 N.am        1 XNC      -0.2078
     11 C4         34.4395    2.9139   38.9097 C.ar        1 XNC       0.0880
     12 C3         33.8304    3.8145   38.0016 C.ar        1 XNC      -0.0607
     13 C2         32.6895    3.4522   37.2736 C.ar        1 XNC      -0.0955
     14 C8         35.5297    3.1844   41.0599 C.3         1 XNC       0.1162
     15 C9         35.8886    1.7933   41.4266 C.2         1 XNC       0.0894
     16 S12        37.2716    1.6038   42.4422 S.o2        1 XNC      -0.0239
     17 O32        37.0163    2.3066   43.8473 O.2         1 XNC      -0.1768
     18 O33        38.5111    2.3326   41.7644 O.2         1 XNC      -0.1768
     19 C13        37.7214   -0.1270   42.6839 C.3         1 XNC       0.0705
     20 C14        37.1076   -1.0468   41.5842 C.3         1 XNC      -0.0050
     21 C37        37.8868   -0.9098   40.2404 C.3         1 XNC      -0.0565
     22 C38        37.2034   -2.5406   42.0491 C.3         1 XNC      -0.0565
     23 C15        35.5961   -0.6673   41.3931 C.3         1 XNC       0.0036
     24 C10        35.3052    0.6898   40.8927 C.2         1 XNC       0.0422
     25 N11        34.3091    0.7084   39.9932 N.pl3       1 XNC      -0.2908
     26 C5         33.8450    1.6389   39.1198 C.ar        1 XNC       0.1100
     27 C6         32.6933    1.2819   38.3750 C.ar        1 XNC       0.0976
     28 O36        32.0850    0.0725   38.5168 O.3         1 XNC      -0.3423
     29 C1         32.1236    2.1796   37.4531 C.ar        1 XNC      -0.0580
     30 C18        34.2811    3.8012   41.6471 C.ar        1 XNC       0.0130
     31 C23        34.2387    5.2050   41.9235 C.ar        1 XNC       0.1283
     32 F34        35.2922    5.9745   41.7501 F           1 XNC      -0.1917
     33 C22        33.0613    5.8092   42.4085 C.ar        1 XNC      -0.0061
     34 C21        31.8993    5.0418   42.6560 C.ar        1 XNC       0.0849
     35 C20        31.9152    3.6728   42.3246 C.ar        1 XNC      -0.0435
     36 C19        33.0898    3.0525   41.8623 C.ar        1 XNC      -0.0671
     37 O24        30.7621    5.5932   43.1885 O.3         1 XNC      -0.3110
     38 C25        30.9443    6.2076   44.4883 C.3         1 XNC       0.1027
     39 C26        30.6293    7.6630   44.4986 C.ar        1 XNC      -0.0131
     40 C31        30.7565    8.3770   45.7129 C.ar        1 XNC      -0.0578
     41 C30        30.4730    9.7551   45.7733 C.ar        1 XNC      -0.0685
     42 C29        30.0743   10.4407   44.6128 C.ar        1 XNC      -0.0687
     43 C28        29.9499    9.7483   43.3958 C.ar        1 XNC      -0.0685
     44 C27        30.2189    8.3661   43.3392 C.ar        1 XNC      -0.0578
     45 H1         36.9073    1.4301   37.5989 H           1 XNC       0.0705
     46 H2         37.1671    1.2040   35.2047 H           1 XNC       0.0729
     47 H3         37.3085    3.1770   33.8005 H           1 XNC       0.0684
     48 H4         37.1347    6.6757   35.2129 H           1 XNC       0.0421
     49 H5         36.3901    5.7864   33.8712 H           1 XNC       0.0421
     50 H6         38.1609    5.8196   34.0455 H           1 XNC       0.0421
     51 H7         34.2135    4.7533   37.8781 H           1 XNC       0.0382
     52 H8         32.2826    4.1024   36.5988 H           1 XNC       0.0451
     53 H9         36.3140    3.8184   41.4823 H           1 XNC       0.0812
     54 H10        37.3595   -0.4167   43.6697 H           1 XNC       0.0503
     55 H11        38.8089   -0.2141   42.7072 H           1 XNC       0.0503
     56 H12        37.4221   -1.5264   39.4674 H           1 XNC       0.0237
     57 H13        38.9241   -1.2351   40.3592 H           1 XNC       0.0237
     58 H14        37.8974    0.1258   39.8914 H           1 XNC       0.0237
     59 H15        36.6642   -2.6991   42.9851 H           1 XNC       0.0237
     60 H16        38.2444   -2.8298   42.2023 H           1 XNC       0.0237
     61 H17        36.7772   -3.2073   41.2974 H           1 XNC       0.0237
     62 H18        35.0775   -0.7723   42.3484 H           1 XNC       0.0444
     63 H19        35.1552   -1.4170   40.7293 H           1 XNC       0.0444
     64 H20        33.8237   -0.1273   39.9601 H           1 XNC       0.2009
     65 H21        31.8327   -0.0131   39.4651 H           1 XNC       0.2432
     66 H22        31.3010    1.9091   36.9073 H           1 XNC       0.0389
     67 H23        33.0505    6.8131   42.5971 H           1 XNC       0.0510
     68 H24        31.0713    3.1113   42.4565 H           1 XNC       0.0491
     69 H25        33.0540    2.0502   41.6660 H           1 XNC       0.0520
     70 H26        31.9498    6.0562   44.9098 H           1 XNC       0.0776
     71 H27        30.2433    5.7008   45.1517 H           1 XNC       0.0776
     72 H28        31.0420    7.8935   46.5678 H           1 XNC       0.0557
     73 H29        30.5703   10.2556   46.6558 H           1 XNC       0.0599
     74 H30        29.8813   11.4450   44.6514 H           1 XNC       0.0559
     75 H31        29.6578   10.2457   42.5572 H           1 XNC       0.0599
     76 H32        30.1162    7.8868   42.4424 H           1 XNC       0.0557
@<TRIPOS>BOND
     1     1     2   2
     2     2     3   1
     3     2    10  am
     4     3     4  ar
     5     3     9  ar
     6     4     5  ar
     7     5     6  ar
     8     6     7  ar
     9     7     8   1
    10     7     9  ar
    11    10    11   1
    12    10    14   1
    13    11    12  ar
    14    11    26  ar
    15    12    13  ar
    16    13    29  ar
    17    14    15   1
    18    14    30   1
    19    15    16   1
    20    15    24   2
    21    16    17   2
    22    16    18   2
    23    16    19   1
    24    19    20   1
    25    20    21   1
    26    20    22   1
    27    20    23   1
    28    23    24   1
    29    24    25   1
    30    25    26   1
    31    26    27  ar
    32    27    28   1
    33    27    29  ar
    34    30    31  ar
    35    30    36  ar
    36    31    32   1
    37    31    33  ar
    38    33    34  ar
    39    34    35  ar
    40    34    37   1
    41    35    36  ar
    42    37    38   1
    43    38    39   1
    44    39    40  ar
    45    39    44  ar
    46    40    41  ar
    47    41    42  ar
    48    42    43  ar
    49    43    44  ar
    50     4    45   1
    51     5    46   1
    52     6    47   1
    53     8    48   1
    54     8    49   1
    55     8    50   1
    56    12    51   1
    57    13    52   1
    58    14    53   1
    59    19    54   1
    60    19    55   1
    61    21    56   1
    62    21    57   1
    63    21    58   1
    64    22    59   1
    65    22    60   1
    66    22    61   1
    67    23    62   1
    68    23    63   1
    69    25    64   1
    70    28    65   1
    71    29    66   1
    72    33    67   1
    73    35    68   1
    74    36    69   1
    75    38    70   1
    76    38    71   1
    77    40    72   1
    78    41    73   1
    79    42    74   1
    80    43    75   1
    81    44    76   1
@<TRIPOS>SUBSTRUCTURE
     1  XNC      2

