@<TRIPOS>MOLECULE
3gnw_ligand_068
    76    81
SMALL
GAST_HUCK
****
This file was generated by PARSER (from files_GN.cpp)

@<TRIPOS>ATOM
      1 O35        32.5314    0.3173   35.1735 O.2         1 XNC      -0.3687
      2 C16        33.3184    1.1578   35.6047 C.2         1 XNC       0.2510
      3 C17        34.4851    1.2778   34.8436 C.ar        1 XNC       0.1194
      4 C43        35.1262    0.1580   34.2576 C.ar        1 XNC      -0.0209
      5 C42        36.2776    0.3428   33.4694 C.ar        1 XNC      -0.0435
      6 C41        36.7870    1.6355   33.2633 C.ar        1 XNC      -0.0287
      7 C40        36.1276    2.7377   33.8440 C.ar        1 XNC       0.0301
      8 C44        36.6466    4.1093   33.6871 C.3         1 XNC      -0.0144
      9 N39        35.0109    2.5079   34.5864 N.ar        1 XNC      -0.2781
     10 N7         33.0019    1.8354   36.7374 N.am        1 XNC      -0.2078
     11 C4         31.7172    1.7324   37.2622 C.ar        1 XNC       0.0880
     12 C3         30.6181    2.1241   36.4540 C.ar        1 XNC      -0.0607
     13 C2         29.3096    2.1177   36.9560 C.ar        1 XNC      -0.0955
     14 C8         33.9707    2.5740   37.5625 C.3         1 XNC       0.1162
     15 C9         34.5429    1.5967   38.5158 C.2         1 XNC       0.0894
     16 S12        36.2427    1.3150   38.4169 S.o2        1 XNC      -0.0239
     17 O32        37.0435    2.6654   38.6690 O.2         1 XNC      -0.1768
     18 O33        36.6469    0.8121   36.9641 O.2         1 XNC      -0.1768
     19 C13        36.7730    0.0661   39.6046 C.3         1 XNC       0.0705
     20 C14        35.8442    0.0237   40.8518 C.3         1 XNC      -0.0050
     21 C37        36.1918   -1.2514   41.6901 C.3         1 XNC      -0.0565
     22 C38        36.0894    1.2581   41.7804 C.3         1 XNC      -0.0565
     23 C15        34.3476   -0.0661   40.3784 C.3         1 XNC       0.0036
     24 C10        33.7976    0.9054   39.4117 C.2         1 XNC       0.0422
     25 N11        32.4539    0.9603   39.4803 N.pl3       1 XNC      -0.2908
     26 C5         31.4811    1.3396   38.6094 C.ar        1 XNC       0.1100
     27 C6         30.1478    1.3047   39.0950 C.ar        1 XNC       0.0976
     28 O36        29.8452    0.9216   40.3661 O.3         1 XNC      -0.3423
     29 C1         29.0761    1.7070   38.2759 C.ar        1 XNC      -0.0580
     30 C18        33.4772    3.9028   38.0971 C.ar        1 XNC       0.0130
     31 C23        33.8824    4.4776   39.3325 C.ar        1 XNC       0.1283
     32 F34        34.7622    3.9251   40.0976 F           1 XNC      -0.1917
     33 C22        33.4177    5.7282   39.7638 C.ar        1 XNC      -0.0061
     34 C21        32.5438    6.4737   38.9568 C.ar        1 XNC       0.0849
     35 C20        32.1426    5.9450   37.7124 C.ar        1 XNC      -0.0435
     36 C19        32.6414    4.7065   37.2753 C.ar        1 XNC      -0.0671
     37 O24        32.1883    7.7305   39.3687 O.3         1 XNC      -0.3110
     38 C25        32.8489    8.8169   38.6792 C.3         1 XNC       0.1027
     39 C26        34.3392    8.8261   38.7681 C.ar        1 XNC      -0.0131
     40 C31        35.0021    9.5743   39.7668 C.ar        1 XNC      -0.0578
     41 C30        36.4057    9.5811   39.8536 C.ar        1 XNC      -0.0685
     42 C29        37.1696    8.8241   38.9453 C.ar        1 XNC      -0.0687
     43 C28        36.5263    8.0669   37.9515 C.ar        1 XNC      -0.0685
     44 C27        35.1227    8.0745   37.8563 C.ar        1 XNC      -0.0578
     45 H1         34.7743   -0.7902   34.4121 H           1 XNC       0.0705
     46 H2         36.7505   -0.4637   33.0557 H           1 XNC       0.0729
     47 H3         37.6381    1.7672   32.7112 H           1 XNC       0.0684
     48 H4         36.0402    4.8261   34.2422 H           1 XNC       0.0421
     49 H5         36.6463    4.3941   32.6334 H           1 XNC       0.0421
     50 H6         37.6673    4.1599   34.0691 H           1 XNC       0.0421
     51 H7         30.7720    2.4525   35.4964 H           1 XNC       0.0382
     52 H8         28.5328    2.4280   36.3660 H           1 XNC       0.0451
     53 H9         34.7888    2.9230   36.9427 H           1 XNC       0.0812
     54 H10        37.8070    0.2666   39.8939 H           1 XNC       0.0503
     55 H11        36.7435   -0.8964   39.0873 H           1 XNC       0.0503
     56 H12        35.5217   -1.3427   42.5473 H           1 XNC       0.0237
     57 H13        37.2185   -1.2052   42.0654 H           1 XNC       0.0237
     58 H14        36.0924   -2.1601   41.0931 H           1 XNC       0.0237
     59 H15        35.9963    2.1823   41.2331 H           1 XNC       0.0237
     60 H16        37.0956    1.2416   42.2042 H           1 XNC       0.0237
     61 H17        35.3694    1.2806   42.5988 H           1 XNC       0.0237
     62 H18        33.7396   -0.0450   41.2895 H           1 XNC       0.0444
     63 H19        34.1857   -1.0499   39.9246 H           1 XNC       0.0444
     64 H20        32.1074    0.5742   40.2982 H           1 XNC       0.2009
     65 H21        30.3490    0.0963   40.5289 H           1 XNC       0.2432
     66 H22        28.1215    1.7075   38.6420 H           1 XNC       0.0389
     67 H23        33.7619    6.1262   40.6438 H           1 XNC       0.0510
     68 H24        31.5290    6.4859   37.0997 H           1 XNC       0.0491
     69 H25        32.3847    4.3909   36.3363 H           1 XNC       0.0520
     70 H26        32.4529    9.7387   39.1127 H           1 XNC       0.0776
     71 H27        32.5421    8.8235   37.6309 H           1 XNC       0.0776
     72 H28        34.4626   10.1284   40.4350 H           1 XNC       0.0557
     73 H29        36.8713   10.1346   40.5756 H           1 XNC       0.0599
     74 H30        38.1900    8.8281   39.0087 H           1 XNC       0.0559
     75 H31        37.0802    7.5106   37.2958 H           1 XNC       0.0599
     76 H32        34.6750    7.5235   37.1207 H           1 XNC       0.0557
@<TRIPOS>BOND
     1     1     2   2
     2     2     3   1
     3     2    10  am
     4     3     4  ar
     5     3     9  ar
     6     4     5  ar
     7     5     6  ar
     8     6     7  ar
     9     7     8   1
    10     7     9  ar
    11    10    11   1
    12    10    14   1
    13    11    12  ar
    14    11    26  ar
    15    12    13  ar
    16    13    29  ar
    17    14    15   1
    18    14    30   1
    19    15    16   1
    20    15    24   2
    21    16    17   2
    22    16    18   2
    23    16    19   1
    24    19    20   1
    25    20    21   1
    26    20    22   1
    27    20    23   1
    28    23    24   1
    29    24    25   1
    30    25    26   1
    31    26    27  ar
    32    27    28   1
    33    27    29  ar
    34    30    31  ar
    35    30    36  ar
    36    31    32   1
    37    31    33  ar
    38    33    34  ar
    39    34    35  ar
    40    34    37   1
    41    35    36  ar
    42    37    38   1
    43    38    39   1
    44    39    40  ar
    45    39    44  ar
    46    40    41  ar
    47    41    42  ar
    48    42    43  ar
    49    43    44  ar
    50     4    45   1
    51     5    46   1
    52     6    47   1
    53     8    48   1
    54     8    49   1
    55     8    50   1
    56    12    51   1
    57    13    52   1
    58    14    53   1
    59    19    54   1
    60    19    55   1
    61    21    56   1
    62    21    57   1
    63    21    58   1
    64    22    59   1
    65    22    60   1
    66    22    61   1
    67    23    62   1
    68    23    63   1
    69    25    64   1
    70    28    65   1
    71    29    66   1
    72    33    67   1
    73    35    68   1
    74    36    69   1
    75    38    70   1
    76    38    71   1
    77    40    72   1
    78    41    73   1
    79    42    74   1
    80    43    75   1
    81    44    76   1
@<TRIPOS>SUBSTRUCTURE
     1  XNC      2

