@<TRIPOS>MOLECULE
3gy4_ligand_015
    20    20
SMALL
GAST_HUCK
****
This file was generated by PARSER (from files_GN.cpp)

@<TRIPOS>ATOM
      1 N2         -3.0944   18.8406   18.5662 N.pl3       1 PBZ      -0.2736
      2 N3         -2.6588   18.1668   20.5644 N.pl3       1 PBZ      -0.2736
      3 C7         -2.7712   17.8642   19.3274 C.cat       1 PBZ       0.2283
      4 C4         -2.5865   16.5529   18.8475 C.ar        1 PBZ       0.0122
      5 C2         -2.8816   14.8482   17.0906 C.ar        1 PBZ      -0.0447
      6 C3         -3.0641   16.1564   17.5690 C.ar        1 PBZ      -0.0685
      7 C5         -1.9032   15.5717   19.6160 C.ar        1 PBZ      -0.0685
      8 C6         -1.7107   14.2658   19.1379 C.ar        1 PBZ      -0.0447
      9 C1         -2.2049   13.8992   17.8744 C.ar        1 PBZ       0.0352
     10 N1         -2.0372   12.6469   17.4168 N.pl3       1 PBZ      -0.3369
     11 H1         -3.1943   18.7202   17.6463 H           1 PBZ       0.3179
     12 H2         -3.2188   19.6938   18.9242 H           1 PBZ       0.3179
     13 H3         -2.4421   17.5202   21.1993 H           1 PBZ       0.3179
     14 H4         -2.7995   19.0457   20.8479 H           1 PBZ       0.3179
     15 H5         -3.2483   14.5942   16.1708 H           1 PBZ       0.0515
     16 H6         -3.5693   16.8108   16.9678 H           1 PBZ       0.0582
     17 H7         -1.5171   15.7991   20.5351 H           1 PBZ       0.0582
     18 H8         -1.2171   13.5856   19.7194 H           1 PBZ       0.0515
     19 H9         -2.3810   12.3987   16.5457 H           1 PBZ       0.1719
     20 H10        -1.5737   11.9883   17.9539 H           1 PBZ       0.1719
@<TRIPOS>BOND
     1     1     3  ar
     2     3     2  ar
     3     3     4   1
     4     4     6  ar
     5     4     7  ar
     6     6     5  ar
     7     5     9  ar
     8     7     8  ar
     9     8     9  ar
    10     9    10   1
    11     1    11   1
    12     1    12   1
    13     2    13   1
    14     2    14   1
    15     5    15   1
    16     6    16   1
    17     7    17   1
    18     8    18   1
    19    10    19   1
    20    10    20   1
@<TRIPOS>SUBSTRUCTURE
     1  PBZ      3

