@<TRIPOS>MOLECULE
3gy4_ligand_003
    20    20
SMALL
GAST_HUCK
****
This file was generated by PARSER (from files_GN.cpp)

@<TRIPOS>ATOM
      1 N2         -3.0751   16.0754   18.4387 N.pl3       1 PBZ      -0.2736
      2 N3         -1.5746   15.6240   19.9015 N.pl3       1 PBZ      -0.2736
      3 C7         -2.0780   15.3429   18.7601 C.cat       1 PBZ       0.2283
      4 C4         -1.5844   14.3226   17.9242 C.ar        1 PBZ       0.0122
      5 C2          0.2278   12.7885   17.2493 C.ar        1 PBZ      -0.0447
      6 C3         -0.2771   13.7927   18.0985 C.ar        1 PBZ      -0.0685
      7 C5         -2.3590   13.7949   16.8581 C.ar        1 PBZ      -0.0685
      8 C6         -1.8590   12.7864   16.0120 C.ar        1 PBZ      -0.0447
      9 C1         -0.5613   12.2811   16.2031 C.ar        1 PBZ       0.0352
     10 N1         -0.0871   11.3163   15.3925 N.pl3       1 PBZ      -0.3369
     11 H1         -3.5142   15.9610   17.6236 H           1 PBZ       0.3179
     12 H2         -3.3637   16.7465   19.0222 H           1 PBZ       0.3179
     13 H3         -0.8541   15.1466   20.2539 H           1 PBZ       0.3179
     14 H4         -1.9426   16.3139   20.4083 H           1 PBZ       0.3179
     15 H5          1.1715   12.4303   17.4023 H           1 PBZ       0.0515
     16 H6          0.3359   14.1432   18.8397 H           1 PBZ       0.0582
     17 H7         -3.3104   14.1274   16.6876 H           1 PBZ       0.0582
     18 H8         -2.4493   12.4243   15.2577 H           1 PBZ       0.0515
     19 H9          0.8106   10.9703   15.5137 H           1 PBZ       0.1719
     20 H10        -0.6464   10.9588   14.6862 H           1 PBZ       0.1719
@<TRIPOS>BOND
     1     1     3  ar
     2     3     2  ar
     3     3     4   1
     4     4     6  ar
     5     4     7  ar
     6     6     5  ar
     7     5     9  ar
     8     7     8  ar
     9     8     9  ar
    10     9    10   1
    11     1    11   1
    12     1    12   1
    13     2    13   1
    14     2    14   1
    15     5    15   1
    16     6    16   1
    17     7    17   1
    18     8    18   1
    19    10    19   1
    20    10    20   1
@<TRIPOS>SUBSTRUCTURE
     1  PBZ      3

