@<TRIPOS>MOLECULE
3gy4_ligand_004
    20    20
SMALL
GAST_HUCK
****
This file was generated by PARSER (from files_GN.cpp)

@<TRIPOS>ATOM
      1 N2         -0.7673   16.9969   17.5585 N.pl3       1 PBZ      -0.2736
      2 N3         -2.2505   16.9011   16.0085 N.pl3       1 PBZ      -0.2736
      3 C7         -1.3291   16.2908   16.6531 C.cat       1 PBZ       0.2283
      4 C4         -0.9715   14.9542   16.3893 C.ar        1 PBZ       0.0122
      5 C2         -1.0903   12.9361   14.9722 C.ar        1 PBZ      -0.0447
      6 C3         -1.4471   14.2701   15.2374 C.ar        1 PBZ      -0.0685
      7 C5         -0.1143   14.2285   17.2607 C.ar        1 PBZ      -0.0685
      8 C6          0.2522   12.8979   16.9948 C.ar        1 PBZ      -0.0447
      9 C1         -0.2387   12.2456   15.8514 C.ar        1 PBZ       0.0352
     10 N1          0.1118   10.9743   15.5950 N.pl3       1 PBZ      -0.3369
     11 H1         -0.0787   16.6479   18.0816 H           1 PBZ       0.3179
     12 H2         -1.0405   17.8788   17.7032 H           1 PBZ       0.3179
     13 H3         -2.7365   16.4790   15.3332 H           1 PBZ       0.3179
     14 H4         -2.4614   17.7874   16.2175 H           1 PBZ       0.3179
     15 H5         -1.4529   12.4750   14.1332 H           1 PBZ       0.0515
     16 H6         -2.0602   14.7337   14.5636 H           1 PBZ       0.0582
     17 H7          0.2645   14.6581   18.1072 H           1 PBZ       0.0582
     18 H8          0.8722   12.4079   17.6442 H           1 PBZ       0.0515
     19 H9         -0.2345   10.5212   14.8132 H           1 PBZ       0.1719
     20 H10         0.6883   10.4932   16.2062 H           1 PBZ       0.1719
@<TRIPOS>BOND
     1     1     3  ar
     2     3     2  ar
     3     3     4   1
     4     4     6  ar
     5     4     7  ar
     6     6     5  ar
     7     5     9  ar
     8     7     8  ar
     9     8     9  ar
    10     9    10   1
    11     1    11   1
    12     1    12   1
    13     2    13   1
    14     2    14   1
    15     5    15   1
    16     6    16   1
    17     7    17   1
    18     8    18   1
    19    10    19   1
    20    10    20   1
@<TRIPOS>SUBSTRUCTURE
     1  PBZ      3

