@<TRIPOS>MOLECULE
3gy4_ligand_011
    20    20
SMALL
GAST_HUCK
****
This file was generated by PARSER (from files_GN.cpp)

@<TRIPOS>ATOM
      1 N2          0.3868   11.3172   17.0038 N.pl3       1 PBZ      -0.2736
      2 N3          0.5838   13.2652   17.8913 N.pl3       1 PBZ      -0.2736
      3 C7          0.1145   12.5643   16.9290 C.cat       1 PBZ       0.2283
      4 C4         -0.6410   13.1186   15.8796 C.ar        1 PBZ       0.0122
      5 C2         -1.8673   15.0135   14.8778 C.ar        1 PBZ      -0.0447
      6 C3         -1.1162   14.4576   15.9288 C.ar        1 PBZ      -0.0685
      7 C5         -0.9613   12.3656   14.7174 C.ar        1 PBZ      -0.0685
      8 C6         -1.7104   12.9185   13.6626 C.ar        1 PBZ      -0.0447
      9 C1         -2.1673   14.2454   13.7390 C.ar        1 PBZ       0.0352
     10 N1         -2.8806   14.7741   12.7300 N.pl3       1 PBZ      -0.3369
     11 H1          0.0733   10.7165   16.3621 H           1 PBZ       0.3179
     12 H2          0.8878   10.9884   17.7206 H           1 PBZ       0.3179
     13 H3          0.4518   14.1886   17.9231 H           1 PBZ       0.3179
     14 H4          1.0783   12.8560   18.5709 H           1 PBZ       0.3179
     15 H5         -2.1898   15.9816   14.9482 H           1 PBZ       0.0515
     16 H6         -0.9291   15.0532   16.7372 H           1 PBZ       0.0582
     17 H7         -0.6434   11.3999   14.6130 H           1 PBZ       0.0582
     18 H8         -1.9160   12.3501   12.8378 H           1 PBZ       0.0515
     19 H9         -3.1947   15.6896   12.7860 H           1 PBZ       0.1719
     20 H10        -3.0918   14.2367   11.9498 H           1 PBZ       0.1719
@<TRIPOS>BOND
     1     1     3  ar
     2     3     2  ar
     3     3     4   1
     4     4     6  ar
     5     4     7  ar
     6     6     5  ar
     7     5     9  ar
     8     7     8  ar
     9     8     9  ar
    10     9    10   1
    11     1    11   1
    12     1    12   1
    13     2    13   1
    14     2    14   1
    15     5    15   1
    16     6    16   1
    17     7    17   1
    18     8    18   1
    19    10    19   1
    20    10    20   1
@<TRIPOS>SUBSTRUCTURE
     1  PBZ      3

