@<TRIPOS>MOLECULE
3gy4_ligand_010
    20    20
SMALL
GAST_HUCK
****
This file was generated by PARSER (from files_GN.cpp)

@<TRIPOS>ATOM
      1 N2         -1.2773   12.9190   16.0406 N.pl3       1 PBZ      -0.2736
      2 N3         -1.9860   12.5680   18.0240 N.pl3       1 PBZ      -0.2736
      3 C7         -1.7979   13.4249   17.0928 C.cat       1 PBZ       0.2283
      4 C4         -2.1338   14.7869   17.2122 C.ar        1 PBZ       0.0122
      5 C2         -2.8253   16.7164   18.5924 C.ar        1 PBZ      -0.0447
      6 C3         -2.4797   15.3589   18.4674 C.ar        1 PBZ      -0.0685
      7 C5         -2.1424   15.6557   16.0856 C.ar        1 PBZ      -0.0685
      8 C6         -2.4787   17.0163   16.2076 C.ar        1 PBZ      -0.0447
      9 C1         -2.8232   17.5507   17.4615 C.ar        1 PBZ       0.0352
     10 N1         -3.1424   18.8504   17.5790 N.pl3       1 PBZ      -0.3369
     11 H1         -1.0804   13.4446   15.2927 H           1 PBZ       0.3179
     12 H2         -1.0905   12.0016   16.0185 H           1 PBZ       0.3179
     13 H3         -2.3785   12.8053   18.8387 H           1 PBZ       0.3179
     14 H4         -1.7476   11.6763   17.8753 H           1 PBZ       0.3179
     15 H5         -3.0677   17.0927   19.5127 H           1 PBZ       0.0515
     16 H6         -2.4720   14.7995   19.3218 H           1 PBZ       0.0582
     17 H7         -1.9119   15.3125   15.1502 H           1 PBZ       0.0582
     18 H8         -2.4762   17.6130   15.3763 H           1 PBZ       0.0515
     19 H9         -3.3761   19.2168   18.4467 H           1 PBZ       0.1719
     20 H10        -3.1361   19.4244   16.7972 H           1 PBZ       0.1719
@<TRIPOS>BOND
     1     1     3  ar
     2     3     2  ar
     3     3     4   1
     4     4     6  ar
     5     4     7  ar
     6     6     5  ar
     7     5     9  ar
     8     7     8  ar
     9     8     9  ar
    10     9    10   1
    11     1    11   1
    12     1    12   1
    13     2    13   1
    14     2    14   1
    15     5    15   1
    16     6    16   1
    17     7    17   1
    18     8    18   1
    19    10    19   1
    20    10    20   1
@<TRIPOS>SUBSTRUCTURE
     1  PBZ      3

