@<TRIPOS>MOLECULE
3gy4_ligand_006
    20    20
SMALL
GAST_HUCK
****
This file was generated by PARSER (from files_GN.cpp)

@<TRIPOS>ATOM
      1 N2         -2.5028   15.0163   12.2355 N.pl3       1 PBZ      -0.2736
      2 N3         -2.1954   12.9052   12.3430 N.pl3       1 PBZ      -0.2736
      3 C7         -2.3011   14.0037   12.9885 C.cat       1 PBZ       0.2283
      4 C4         -2.2246   14.0907   14.3941 C.ar        1 PBZ       0.0122
      5 C2         -2.0255   15.4379   16.4578 C.ar        1 PBZ      -0.0447
      6 C3         -2.1025   15.3430   15.0560 C.ar        1 PBZ      -0.0685
      7 C5         -2.2598   12.9323   15.2183 C.ar        1 PBZ      -0.0685
      8 C6         -2.1785   13.0219   16.6211 C.ar        1 PBZ      -0.0447
      9 C1         -2.0628   14.2750   17.2467 C.ar        1 PBZ       0.0352
     10 N1         -1.9867   14.3594   18.5869 N.pl3       1 PBZ      -0.3369
     11 H1         -2.6237   15.8673   12.5975 H           1 PBZ       0.3179
     12 H2         -2.5521   14.9021   11.3068 H           1 PBZ       0.3179
     13 H3         -2.0922   12.0903   12.7877 H           1 PBZ       0.3179
     14 H4         -2.2712   12.9078   11.4078 H           1 PBZ       0.3179
     15 H5         -1.9410   16.3577   16.8987 H           1 PBZ       0.0515
     16 H6         -2.0617   16.2151   14.5270 H           1 PBZ       0.0582
     17 H7         -2.3592   11.9998   14.8120 H           1 PBZ       0.0582
     18 H8         -2.2068   12.1692   17.1851 H           1 PBZ       0.0515
     19 H9         -1.9077   15.2258   19.0168 H           1 PBZ       0.1719
     20 H10        -2.0111   13.5536   19.1269 H           1 PBZ       0.1719
@<TRIPOS>BOND
     1     1     3  ar
     2     3     2  ar
     3     3     4   1
     4     4     6  ar
     5     4     7  ar
     6     6     5  ar
     7     5     9  ar
     8     7     8  ar
     9     8     9  ar
    10     9    10   1
    11     1    11   1
    12     1    12   1
    13     2    13   1
    14     2    14   1
    15     5    15   1
    16     6    16   1
    17     7    17   1
    18     8    18   1
    19    10    19   1
    20    10    20   1
@<TRIPOS>SUBSTRUCTURE
     1  PBZ      3

