@<TRIPOS>MOLECULE
3gy4_ligand_014
    20    20
SMALL
GAST_HUCK
****
This file was generated by PARSER (from files_GN.cpp)

@<TRIPOS>ATOM
      1 N2         -0.7477   12.6176   17.1886 N.pl3       1 PBZ      -0.2736
      2 N3         -2.0432   12.2462   18.8527 N.pl3       1 PBZ      -0.2736
      3 C7         -1.3262   13.0978   18.2221 C.cat       1 PBZ       0.2283
      4 C4         -1.1886   14.4391   18.6329 C.ar        1 PBZ       0.0122
      5 C2         -0.4290   16.7496   18.2041 C.ar        1 PBZ      -0.0447
      6 C3         -0.5735   15.4117   17.7978 C.ar        1 PBZ      -0.0685
      7 C5         -1.6561   14.8846   19.9004 C.ar        1 PBZ      -0.0685
      8 C6         -1.5177   16.2223   20.3101 C.ar        1 PBZ      -0.0447
      9 C1         -0.9014   17.1596   19.4631 C.ar        1 PBZ       0.0352
     10 N1         -0.7649   18.4378   19.8546 N.pl3       1 PBZ      -0.3369
     11 H1         -0.1919   13.1466   16.6545 H           1 PBZ       0.3179
     12 H2         -0.8796   11.7190   16.9586 H           1 PBZ       0.3179
     13 H3         -2.5334   12.4818   19.6087 H           1 PBZ       0.3179
     14 H4         -2.1038   11.3723   18.5369 H           1 PBZ       0.3179
     15 H5          0.0177   17.4211   17.5741 H           1 PBZ       0.0515
     16 H6         -0.2292   15.1664   16.8686 H           1 PBZ       0.0582
     17 H7         -2.0895   14.2381   20.5618 H           1 PBZ       0.0582
     18 H8         -1.8602   16.5038   21.2319 H           1 PBZ       0.0515
     19 H9         -0.3404   19.0835   19.2680 H           1 PBZ       0.1719
     20 H10        -1.0907   18.7182   20.7249 H           1 PBZ       0.1719
@<TRIPOS>BOND
     1     1     3  ar
     2     3     2  ar
     3     3     4   1
     4     4     6  ar
     5     4     7  ar
     6     6     5  ar
     7     5     9  ar
     8     7     8  ar
     9     8     9  ar
    10     9    10   1
    11     1    11   1
    12     1    12   1
    13     2    13   1
    14     2    14   1
    15     5    15   1
    16     6    16   1
    17     7    17   1
    18     8    18   1
    19    10    19   1
    20    10    20   1
@<TRIPOS>SUBSTRUCTURE
     1  PBZ      3

