@<TRIPOS>MOLECULE
3gy4_ligand_007
    20    20
SMALL
GAST_HUCK
****
This file was generated by PARSER (from files_GN.cpp)

@<TRIPOS>ATOM
      1 N2          1.2435   17.6123   18.2934 N.pl3       1 PBZ      -0.2736
      2 N3          0.7740   16.2367   19.8731 N.pl3       1 PBZ      -0.2736
      3 C7          0.5139   16.6385   18.6872 C.cat       1 PBZ       0.2283
      4 C4         -0.4854   16.0545   17.8857 C.ar        1 PBZ       0.0122
      5 C2         -2.1135   14.2491   17.4542 C.ar        1 PBZ      -0.0447
      6 C3         -1.1144   14.8335   18.2530 C.ar        1 PBZ      -0.0685
      7 C5         -0.9131   16.6614   16.6739 C.ar        1 PBZ      -0.0685
      8 C6         -1.9101   16.0795   15.8716 C.ar        1 PBZ      -0.0447
      9 C1         -2.5143   14.8702   16.2590 C.ar        1 PBZ       0.0352
     10 N1         -3.4610   14.3073   15.4895 N.pl3       1 PBZ      -0.3369
     11 H1          1.1367   17.9830   17.4452 H           1 PBZ       0.3179
     12 H2          1.8944   17.9710   18.8603 H           1 PBZ       0.3179
     13 H3          0.3006   15.5341   20.2648 H           1 PBZ       0.3179
     14 H4          1.4465   16.6518   20.3726 H           1 PBZ       0.3179
     15 H5         -2.5415   13.3674   17.7468 H           1 PBZ       0.0515
     16 H6         -0.8481   14.3383   19.1074 H           1 PBZ       0.0582
     17 H7         -0.5127   17.5465   16.3577 H           1 PBZ       0.0582
     18 H8         -2.1920   16.5459   15.0070 H           1 PBZ       0.0515
     19 H9         -3.8926   13.4840   15.7603 H           1 PBZ       0.1719
     20 H10        -3.7470   14.7546   14.6800 H           1 PBZ       0.1719
@<TRIPOS>BOND
     1     1     3  ar
     2     3     2  ar
     3     3     4   1
     4     4     6  ar
     5     4     7  ar
     6     6     5  ar
     7     5     9  ar
     8     7     8  ar
     9     8     9  ar
    10     9    10   1
    11     1    11   1
    12     1    12   1
    13     2    13   1
    14     2    14   1
    15     5    15   1
    16     6    16   1
    17     7    17   1
    18     8    18   1
    19    10    19   1
    20    10    20   1
@<TRIPOS>SUBSTRUCTURE
     1  PBZ      3

