@<TRIPOS>MOLECULE
3huc_ligand_049
    43    46
SMALL
GAST_HUCK
****
This file was generated by PARSER (from files_GN.cpp)

@<TRIPOS>ATOM
      1 CAH        20.0254    2.7931  -16.3331 C.ar        1 G97      -0.0465
      2 CAE        19.6938    4.0316  -15.7487 C.ar        1 G97      -0.0569
      3 CAD        20.0181    4.2879  -14.4056 C.ar        1 G97      -0.0580
      4 CAF        20.6772    3.3073  -13.6441 C.ar        1 G97      -0.0569
      5 CAI        21.0036    2.0647  -14.2236 C.ar        1 G97      -0.0465
      6 CAW        20.6806    1.7920  -15.5738 C.ar        1 G97       0.0141
      7 C2         21.0095    0.5474  -16.1584 C.ar        1 G97       0.0921
      8 N1         21.5484    0.4912  -17.3966 N.ar        1 G97      -0.2553
      9 N3         20.7694   -0.6151  -15.4992 N.ar        1 G97      -0.3009
     10 C4         21.0393   -1.8213  -16.0564 C.ar        1 G97       0.0255
     11 CAM        20.7230   -2.9829  -15.3272 C.ar        1 G97      -0.0253
     12 CAU        20.9835   -4.2707  -15.8470 C.ar        1 G97       0.0730
     13 NAQ        20.6642   -5.4510  -15.2101 N.am        1 G97      -0.2295
     14 CAT        20.4973   -5.7136  -13.9058 C.2         1 G97       0.2258
     15 OAB        20.7794   -4.8724  -13.0608 O.2         1 G97      -0.3745
     16 CAC        20.0567   -6.9156  -13.4304 C.2         1 G97       0.0150
     17 CAA        19.8540   -8.0401  -14.1374 C.2         1 G97      -0.0781
     18 CAK        21.5181   -4.3542  -17.1582 C.ar        1 G97      -0.0283
     19 CAL        21.8254   -3.1949  -17.9008 C.ar        1 G97      -0.0465
     20 C5         21.5986   -1.8993  -17.3640 C.ar        1 G97       0.0455
     21 C6         21.8695   -0.6680  -18.0354 C.ar        1 G97       0.1561
     22 NAR        22.4359   -0.6333  -19.2748 N.pl3       1 G97      -0.2206
     23 CAV        22.8052    0.4541  -20.0152 C.2         1 G97       0.1818
     24 CAJ        22.7344    1.8323  -19.8159 C.2         1 G97      -0.0280
     25 CAG        23.2969    2.4130  -20.9407 C.2         1 G97      -0.0243
     26 NAS        23.6811    1.4356  -21.7726 N.2         1 G97      -0.2412
     27 NAN        23.3881    0.2967  -21.2159 N.pl3       1 G97      -0.2006
     28 H1         19.7605    2.6188  -17.3089 H           1 G97       0.0660
     29 H2         19.2204    4.7450  -16.3068 H           1 G97       0.0628
     30 H3         19.7936    5.1880  -13.9897 H           1 G97       0.0649
     31 H4         20.9354    3.4979  -12.6764 H           1 G97       0.0628
     32 H5         21.5002    1.3690  -13.6583 H           1 G97       0.0660
     33 H6         20.2497   -2.8663  -14.4286 H           1 G97       0.0447
     34 H7         20.5402   -6.2069  -15.8012 H           1 G97       0.2290
     35 H8         19.8775   -6.9822  -12.4520 H           1 G97       0.0698
     36 H9         19.5333   -8.8566  -13.6705 H           1 G97       0.0686
     37 H10        20.0193   -8.0868  -15.1159 H           1 G97       0.0686
     38 H11        21.6819   -5.2698  -17.5833 H           1 G97       0.0570
     39 H12        22.2094   -3.3003  -18.8415 H           1 G97       0.0666
     40 H13        22.6278   -1.4884  -19.6825 H           1 G97       0.2279
     41 H14        22.3548    2.3428  -19.0150 H           1 G97       0.0216
     42 H15        23.4027    3.4199  -21.1156 H           1 G97       0.0607
     43 H16        23.5708   -0.5628  -21.6220 H           1 G97       0.2521
@<TRIPOS>BOND
     1     1     2  ar
     2     1     6  ar
     3     2     3  ar
     4     3     4  ar
     5     4     5  ar
     6     5     6  ar
     7     6     7   1
     8     7     8  ar
     9     7     9  ar
    10     8    21  ar
    11     9    10  ar
    12    10    11  ar
    13    10    20  ar
    14    11    12  ar
    15    12    13   1
    16    12    18  ar
    17    13    14  am
    18    14    15   2
    19    14    16   1
    20    16    17   2
    21    18    19  ar
    22    19    20  ar
    23    20    21  ar
    24    21    22   1
    25    22    23   1
    26    23    24   2
    27    23    27   1
    28    24    25   1
    29    25    26   2
    30    26    27   1
    31     1    28   1
    32     2    29   1
    33     3    30   1
    34     4    31   1
    35     5    32   1
    36    11    33   1
    37    13    34   1
    38    16    35   1
    39    17    36   1
    40    17    37   1
    41    18    38   1
    42    19    39   1
    43    22    40   1
    44    24    41   1
    45    25    42   1
    46    27    43   1
@<TRIPOS>SUBSTRUCTURE
     1  G97      1

