@<TRIPOS>MOLECULE
3huc_ligand_066
    43    46
SMALL
GAST_HUCK
****
This file was generated by PARSER (from files_GN.cpp)

@<TRIPOS>ATOM
      1 CAH        22.0103   -0.3120  -14.3045 C.ar        1 G97      -0.0465
      2 CAE        21.9279   -1.2245  -13.2392 C.ar        1 G97      -0.0569
      3 CAD        21.0970   -0.9521  -12.1369 C.ar        1 G97      -0.0580
      4 CAF        20.3580    0.2438  -12.0995 C.ar        1 G97      -0.0569
      5 CAI        20.4425    1.1562  -13.1601 C.ar        1 G97      -0.0465
      6 CAW        21.2683    0.8979  -14.2878 C.ar        1 G97       0.0141
      7 C2         21.3717    1.8314  -15.3523 C.ar        1 G97       0.0921
      8 N1         21.2096    3.1609  -15.1421 N.ar        1 G97      -0.2553
      9 N3         21.6300    1.4308  -16.6219 N.ar        1 G97      -0.3009
     10 C4         21.7862    2.3031  -17.6428 C.ar        1 G97       0.0255
     11 CAM        22.1039    1.8125  -18.9228 C.ar        1 G97      -0.0253
     12 CAU        22.3854    2.6941  -19.9946 C.ar        1 G97       0.0730
     13 NAQ        22.6184    2.1218  -21.2201 N.am        1 G97      -0.2295
     14 CAT        23.1609    2.6186  -22.3328 C.2         1 G97       0.2258
     15 OAB        23.6707    3.7386  -22.3694 O.2         1 G97      -0.3745
     16 CAC        23.2472    1.8187  -23.4269 C.2         1 G97       0.0150
     17 CAA        23.2112    2.2524  -24.6945 C.2         1 G97      -0.0781
     18 CAK        22.3801    4.0840  -19.7392 C.ar        1 G97      -0.0283
     19 CAL        22.0582    4.5673  -18.4588 C.ar        1 G97      -0.0465
     20 C5         21.6883    3.6991  -17.4057 C.ar        1 G97       0.0455
     21 C6         21.3177    4.1181  -16.0960 C.ar        1 G97       0.1561
     22 NAR        21.0483    5.3471  -15.5961 N.pl3       1 G97      -0.2206
     23 CAV        20.6214    6.4785  -16.2041 C.2         1 G97       0.1818
     24 CAJ        19.9510    6.7070  -17.4013 C.2         1 G97      -0.0280
     25 CAG        19.7322    8.0782  -17.4622 C.2         1 G97      -0.0243
     26 NAS        20.2467    8.6315  -16.3494 N.2         1 G97      -0.2412
     27 NAN        20.7481    7.6785  -15.6192 N.pl3       1 G97      -0.2006
     28 H1         22.6328   -0.5290  -15.0841 H           1 G97       0.0660
     29 H2         22.4638   -2.0972  -13.2728 H           1 G97       0.0628
     30 H3         21.0262   -1.6198  -11.3708 H           1 G97       0.0649
     31 H4         19.7522    0.4434  -11.2968 H           1 G97       0.0628
     32 H5         19.8881    2.0172  -13.1118 H           1 G97       0.0660
     33 H6         22.1531    0.7952  -19.0730 H           1 G97       0.0447
     34 H7         22.3649    1.1800  -21.2847 H           1 G97       0.2290
     35 H8         23.3010    0.8316  -23.2912 H           1 G97       0.0698
     36 H9         23.3103    1.6073  -25.4464 H           1 G97       0.0686
     37 H10        23.1223    3.2161  -24.9145 H           1 G97       0.0686
     38 H11        22.6019    4.7715  -20.4649 H           1 G97       0.0570
     39 H12        22.1590    5.5797  -18.2830 H           1 G97       0.0666
     40 H13        21.0505    5.3972  -14.6297 H           1 G97       0.2279
     41 H14        19.6715    6.0125  -18.1100 H           1 G97       0.0216
     42 H15        19.2920    8.5728  -18.2377 H           1 G97       0.0607
     43 H16        21.1678    7.8111  -14.7597 H           1 G97       0.2521
@<TRIPOS>BOND
     1     1     2  ar
     2     1     6  ar
     3     2     3  ar
     4     3     4  ar
     5     4     5  ar
     6     5     6  ar
     7     6     7   1
     8     7     8  ar
     9     7     9  ar
    10     8    21  ar
    11     9    10  ar
    12    10    11  ar
    13    10    20  ar
    14    11    12  ar
    15    12    13   1
    16    12    18  ar
    17    13    14  am
    18    14    15   2
    19    14    16   1
    20    16    17   2
    21    18    19  ar
    22    19    20  ar
    23    20    21  ar
    24    21    22   1
    25    22    23   1
    26    23    24   2
    27    23    27   1
    28    24    25   1
    29    25    26   2
    30    26    27   1
    31     1    28   1
    32     2    29   1
    33     3    30   1
    34     4    31   1
    35     5    32   1
    36    11    33   1
    37    13    34   1
    38    16    35   1
    39    17    36   1
    40    17    37   1
    41    18    38   1
    42    19    39   1
    43    22    40   1
    44    24    41   1
    45    25    42   1
    46    27    43   1
@<TRIPOS>SUBSTRUCTURE
     1  G97      1

