@<TRIPOS>MOLECULE
3huc_ligand_095
    43    46
SMALL
GAST_HUCK
****
This file was generated by PARSER (from files_GN.cpp)

@<TRIPOS>ATOM
      1 CAH        19.6104    4.8078   -4.6388 C.ar        1 G97      -0.0465
      2 CAE        18.7644    5.8675   -4.2616 C.ar        1 G97      -0.0569
      3 CAD        18.0440    6.5755   -5.2376 C.ar        1 G97      -0.0580
      4 CAF        18.1700    6.2215   -6.5916 C.ar        1 G97      -0.0569
      5 CAI        19.0125    5.1580   -6.9676 C.ar        1 G97      -0.0465
      6 CAW        19.7544    4.4307   -6.0006 C.ar        1 G97       0.0141
      7 C2         20.6029    3.3488   -6.3813 C.ar        1 G97       0.0921
      8 N1         21.4400    2.7534   -5.4917 N.ar        1 G97      -0.2553
      9 N3         20.6135    2.8592   -7.6476 N.ar        1 G97      -0.3009
     10 C4         21.3855    1.8123   -8.0313 C.ar        1 G97       0.0255
     11 CAM        21.2674    1.3368   -9.3518 C.ar        1 G97      -0.0253
     12 CAU        21.9506    0.1739   -9.7663 C.ar        1 G97       0.0730
     13 NAQ        21.7389   -0.2434  -11.0565 N.am        1 G97      -0.2295
     14 CAT        21.8159   -1.4665  -11.5809 C.2         1 G97       0.2258
     15 OAB        22.0317   -2.4429  -10.8735 O.2         1 G97      -0.3745
     16 CAC        21.5576   -1.7097  -12.8971 C.2         1 G97       0.0150
     17 CAA        21.7299   -0.8435  -13.9059 C.2         1 G97      -0.0781
     18 CAK        22.7992   -0.4696   -8.8345 C.ar        1 G97      -0.0283
     19 CAL        22.9257    0.0091   -7.5168 C.ar        1 G97      -0.0465
     20 C5         22.2457    1.1758   -7.0921 C.ar        1 G97       0.0455
     21 C6         22.2793    1.7247   -5.7770 C.ar        1 G97       0.1561
     22 NAR        23.0328    1.3892   -4.7008 N.pl3       1 G97      -0.2206
     23 CAV        24.2276    0.7590   -4.6229 C.2         1 G97       0.1818
     24 CAJ        25.3028    0.7754   -5.5012 C.2         1 G97      -0.0280
     25 CAG        26.3179    0.0738   -4.8722 C.2         1 G97      -0.0243
     26 NAS        25.8731   -0.3009   -3.6619 N.2         1 G97      -0.2412
     27 NAN        24.6536    0.1192   -3.5219 N.pl3       1 G97      -0.2006
     28 H1         20.1206    4.3171   -3.9008 H           1 G97       0.0660
     29 H2         18.6773    6.1272   -3.2764 H           1 G97       0.0628
     30 H3         17.4312    7.3472   -4.9641 H           1 G97       0.0649
     31 H4         17.6437    6.7328   -7.3040 H           1 G97       0.0628
     32 H5         19.0780    4.9268   -7.9631 H           1 G97       0.0660
     33 H6         20.6371    1.8174  -10.0020 H           1 G97       0.0447
     34 H7         21.4280    0.4500  -11.6604 H           1 G97       0.2290
     35 H8         21.2248   -2.6155  -13.1483 H           1 G97       0.0698
     36 H9         21.5259   -1.1219  -14.8369 H           1 G97       0.0686
     37 H10        22.0698    0.0766  -13.7581 H           1 G97       0.0686
     38 H11        23.3356   -1.2960   -9.1019 H           1 G97       0.0570
     39 H12        23.4858   -0.5404   -6.8677 H           1 G97       0.0666
     40 H13        22.7256    1.7555   -3.8570 H           1 G97       0.2279
     41 H14        25.3446    1.2272   -6.4160 H           1 G97       0.0216
     42 H15        27.2512   -0.1024   -5.2461 H           1 G97       0.0607
     43 H16        24.1197   -0.0098   -2.7220 H           1 G97       0.2521
@<TRIPOS>BOND
     1     1     2  ar
     2     1     6  ar
     3     2     3  ar
     4     3     4  ar
     5     4     5  ar
     6     5     6  ar
     7     6     7   1
     8     7     8  ar
     9     7     9  ar
    10     8    21  ar
    11     9    10  ar
    12    10    11  ar
    13    10    20  ar
    14    11    12  ar
    15    12    13   1
    16    12    18  ar
    17    13    14  am
    18    14    15   2
    19    14    16   1
    20    16    17   2
    21    18    19  ar
    22    19    20  ar
    23    20    21  ar
    24    21    22   1
    25    22    23   1
    26    23    24   2
    27    23    27   1
    28    24    25   1
    29    25    26   2
    30    26    27   1
    31     1    28   1
    32     2    29   1
    33     3    30   1
    34     4    31   1
    35     5    32   1
    36    11    33   1
    37    13    34   1
    38    16    35   1
    39    17    36   1
    40    17    37   1
    41    18    38   1
    42    19    39   1
    43    22    40   1
    44    24    41   1
    45    25    42   1
    46    27    43   1
@<TRIPOS>SUBSTRUCTURE
     1  G97      1

