@<TRIPOS>MOLECULE
3huc_ligand_072
    43    46
SMALL
GAST_HUCK
****
This file was generated by PARSER (from files_GN.cpp)

@<TRIPOS>ATOM
      1 CAH        20.2078   -1.6869   -9.7486 C.ar        1 G97      -0.0465
      2 CAE        20.7314   -0.7241   -8.8690 C.ar        1 G97      -0.0569
      3 CAD        21.8192   -1.0471   -8.0389 C.ar        1 G97      -0.0580
      4 CAF        22.3763   -2.3379   -8.0800 C.ar        1 G97      -0.0569
      5 CAI        21.8355   -3.3157   -8.9352 C.ar        1 G97      -0.0465
      6 CAW        20.7508   -2.9909   -9.7794 C.ar        1 G97       0.0141
      7 C2         20.2622   -3.9209  -10.7041 C.ar        1 G97       0.0921
      8 N1         20.4079   -3.6647  -12.0240 N.ar        1 G97      -0.2553
      9 N3         19.6304   -5.0528  -10.3137 N.ar        1 G97      -0.3009
     10 C4         19.1279   -5.9279  -11.2220 C.ar        1 G97       0.0255
     11 CAM        18.4420   -7.0721  -10.7707 C.ar        1 G97      -0.0253
     12 CAU        17.8880   -7.9916  -11.6852 C.ar        1 G97       0.0730
     13 NAQ        17.2059   -9.0603  -11.1650 N.am        1 G97      -0.2295
     14 CAT        17.0097  -10.2709  -11.6781 C.2         1 G97       0.2258
     15 OAB        17.4971  -10.6129  -12.7502 O.2         1 G97      -0.3745
     16 CAC        16.2875  -11.1677  -10.9619 C.2         1 G97       0.0150
     17 CAA        16.5826  -12.4692  -10.8593 C.2         1 G97      -0.0781
     18 CAK        18.0185   -7.7268  -13.0682 C.ar        1 G97      -0.0283
     19 CAL        18.7123   -6.5936  -13.5270 C.ar        1 G97      -0.0465
     20 C5         19.2754   -5.6742  -12.6154 C.ar        1 G97       0.0455
     21 C6         19.9605   -4.4911  -13.0013 C.ar        1 G97       0.1561
     22 NAR        20.1614   -4.1799  -14.3072 N.pl3       1 G97      -0.2206
     23 CAV        20.7682   -3.0895  -14.8536 C.2         1 G97       0.1818
     24 CAJ        21.3844   -1.9653  -14.3102 C.2         1 G97      -0.0280
     25 CAG        21.7961   -1.1997  -15.3889 C.2         1 G97      -0.0243
     26 NAS        21.4463   -1.8394  -16.5154 N.2         1 G97      -0.2412
     27 NAN        20.8469   -2.9410  -16.1870 N.pl3       1 G97      -0.2006
     28 H1         19.4280   -1.4309  -10.3610 H           1 G97       0.0660
     29 H2         20.3277    0.2156   -8.8452 H           1 G97       0.0628
     30 H3         22.2083   -0.3423   -7.4113 H           1 G97       0.0649
     31 H4         23.1864   -2.5593   -7.5007 H           1 G97       0.0628
     32 H5         22.2635   -4.2473   -8.9659 H           1 G97       0.0660
     33 H6         18.3436   -7.2346   -9.7630 H           1 G97       0.0447
     34 H7         16.8731   -8.9335  -10.2615 H           1 G97       0.2290
     35 H8         15.4964  -10.8336  -10.4594 H           1 G97       0.0698
     36 H9         16.0045  -13.0731  -10.3240 H           1 G97       0.0686
     37 H10        17.3821  -12.8572  -11.3052 H           1 G97       0.0686
     38 H11        17.5845   -8.3350  -13.7618 H           1 G97       0.0570
     39 H12        18.7813   -6.4421  -14.5342 H           1 G97       0.0666
     40 H13        19.8224   -4.8197  -14.9502 H           1 G97       0.2279
     41 H14        21.5235   -1.7254  -13.3289 H           1 G97       0.0216
     42 H15        22.2896   -0.3058  -15.3392 H           1 G97       0.0607
     43 H16        20.4897   -3.5795  -16.8246 H           1 G97       0.2521
@<TRIPOS>BOND
     1     1     2  ar
     2     1     6  ar
     3     2     3  ar
     4     3     4  ar
     5     4     5  ar
     6     5     6  ar
     7     6     7   1
     8     7     8  ar
     9     7     9  ar
    10     8    21  ar
    11     9    10  ar
    12    10    11  ar
    13    10    20  ar
    14    11    12  ar
    15    12    13   1
    16    12    18  ar
    17    13    14  am
    18    14    15   2
    19    14    16   1
    20    16    17   2
    21    18    19  ar
    22    19    20  ar
    23    20    21  ar
    24    21    22   1
    25    22    23   1
    26    23    24   2
    27    23    27   1
    28    24    25   1
    29    25    26   2
    30    26    27   1
    31     1    28   1
    32     2    29   1
    33     3    30   1
    34     4    31   1
    35     5    32   1
    36    11    33   1
    37    13    34   1
    38    16    35   1
    39    17    36   1
    40    17    37   1
    41    18    38   1
    42    19    39   1
    43    22    40   1
    44    24    41   1
    45    25    42   1
    46    27    43   1
@<TRIPOS>SUBSTRUCTURE
     1  G97      1

