@<TRIPOS>MOLECULE
3huc_ligand_070
    43    46
SMALL
GAST_HUCK
****
This file was generated by PARSER (from files_GN.cpp)

@<TRIPOS>ATOM
      1 CAH        13.9750   -0.8435  -10.2235 C.ar        1 G97      -0.0465
      2 CAE        13.3447    0.4075  -10.0923 C.ar        1 G97      -0.0569
      3 CAD        11.9532    0.4775   -9.9029 C.ar        1 G97      -0.0580
      4 CAF        11.1953   -0.7036   -9.8353 C.ar        1 G97      -0.0569
      5 CAI        11.8263   -1.9532   -9.9700 C.ar        1 G97      -0.0465
      6 CAW        13.2253   -2.0487  -10.1711 C.ar        1 G97       0.0141
      7 C2         13.8653   -3.3109  -10.2947 C.ar        1 G97       0.0921
      8 N1         13.1437   -4.4537  -10.4267 N.ar        1 G97      -0.2553
      9 N3         15.2153   -3.4382  -10.2691 N.ar        1 G97      -0.3009
     10 C4         15.8542   -4.6352  -10.3732 C.ar        1 G97       0.0255
     11 CAM        17.2636   -4.6545  -10.3677 C.ar        1 G97      -0.0253
     12 CAU        17.9732   -5.8689  -10.4745 C.ar        1 G97       0.0730
     13 NAQ        19.3404   -5.8035  -10.4838 N.am        1 G97      -0.2295
     14 CAT        20.2142   -6.7083  -10.0424 C.2         1 G97       0.2258
     15 OAB        19.8611   -7.7045   -9.4254 O.2         1 G97      -0.3745
     16 CAC        21.5476   -6.4897  -10.1426 C.2         1 G97       0.0150
     17 CAA        22.1781   -6.2426  -11.3002 C.2         1 G97      -0.0781
     18 CAK        17.2271   -7.0581  -10.6429 C.ar        1 G97      -0.0283
     19 CAL        15.8173   -7.0409  -10.6727 C.ar        1 G97      -0.0465
     20 C5         15.0945   -5.8374  -10.5146 C.ar        1 G97       0.0455
     21 C6         13.6769   -5.6977  -10.5286 C.ar        1 G97       0.1561
     22 NAR        12.6885   -6.6260  -10.6216 N.pl3       1 G97      -0.2206
     23 CAV        12.7979   -7.9597  -10.4902 C.2         1 G97       0.1818
     24 CAJ        12.9205   -8.6573   -9.3074 C.2         1 G97      -0.0280
     25 CAG        12.9649   -9.9844   -9.6662 C.2         1 G97      -0.0243
     26 NAS        12.7773  -10.0702  -10.9985 N.2         1 G97      -0.2412
     27 NAN        12.6666   -8.8671  -11.4776 N.pl3       1 G97      -0.2006
     28 H1         14.9895   -0.8647  -10.3610 H           1 G97       0.0660
     29 H2         13.9001    1.2612  -10.1296 H           1 G97       0.0628
     30 H3         11.4967    1.3878   -9.8157 H           1 G97       0.0649
     31 H4         10.1881   -0.6512   -9.6812 H           1 G97       0.0628
     32 H5         11.2433   -2.7899   -9.9038 H           1 G97       0.0660
     33 H6         17.7675   -3.7716  -10.2789 H           1 G97       0.0447
     34 H7         19.7257   -4.9723  -10.7979 H           1 G97       0.2290
     35 H8         22.1092   -6.5795   -9.3188 H           1 G97       0.0698
     36 H9         23.1680   -6.1468  -11.3216 H           1 G97       0.0686
     37 H10        21.6789   -6.1660  -12.1576 H           1 G97       0.0686
     38 H11        17.7054   -7.9486  -10.7737 H           1 G97       0.0570
     39 H12        15.3448   -7.9185  -10.8668 H           1 G97       0.0666
     40 H13        11.7741   -6.2807  -10.6533 H           1 G97       0.2279
     41 H14        13.0012   -8.2616   -8.3670 H           1 G97       0.0216
     42 H15        13.0619  -10.7787   -9.0328 H           1 G97       0.0607
     43 H16        12.5212   -8.6545  -12.4180 H           1 G97       0.2521
@<TRIPOS>BOND
     1     1     2  ar
     2     1     6  ar
     3     2     3  ar
     4     3     4  ar
     5     4     5  ar
     6     5     6  ar
     7     6     7   1
     8     7     8  ar
     9     7     9  ar
    10     8    21  ar
    11     9    10  ar
    12    10    11  ar
    13    10    20  ar
    14    11    12  ar
    15    12    13   1
    16    12    18  ar
    17    13    14  am
    18    14    15   2
    19    14    16   1
    20    16    17   2
    21    18    19  ar
    22    19    20  ar
    23    20    21  ar
    24    21    22   1
    25    22    23   1
    26    23    24   2
    27    23    27   1
    28    24    25   1
    29    25    26   2
    30    26    27   1
    31     1    28   1
    32     2    29   1
    33     3    30   1
    34     4    31   1
    35     5    32   1
    36    11    33   1
    37    13    34   1
    38    16    35   1
    39    17    36   1
    40    17    37   1
    41    18    38   1
    42    19    39   1
    43    22    40   1
    44    24    41   1
    45    25    42   1
    46    27    43   1
@<TRIPOS>SUBSTRUCTURE
     1  G97      1

