@<TRIPOS>MOLECULE
3huc_ligand_028
    43    46
SMALL
GAST_HUCK
****
This file was generated by PARSER (from files_GN.cpp)

@<TRIPOS>ATOM
      1 CAH        22.2334   -0.5458  -14.7996 C.ar        1 G97      -0.0465
      2 CAE        22.0748   -0.2850  -16.1743 C.ar        1 G97      -0.0569
      3 CAD        21.5615   -1.2792  -17.0220 C.ar        1 G97      -0.0580
      4 CAF        21.2157   -2.5359  -16.4939 C.ar        1 G97      -0.0569
      5 CAI        21.3938   -2.8005  -15.1225 C.ar        1 G97      -0.0465
      6 CAW        21.9056   -1.8108  -14.2440 C.ar        1 G97       0.0141
      7 C2         22.0443   -2.0655  -12.8462 C.ar        1 G97       0.0921
      8 N1         22.0126   -3.3305  -12.3538 N.ar        1 G97      -0.2553
      9 N3         22.1349   -1.0583  -11.9392 N.ar        1 G97      -0.3009
     10 C4         22.2053   -1.2696  -10.6010 C.ar        1 G97       0.0255
     11 CAM        22.2981   -0.1595   -9.7380 C.ar        1 G97      -0.0253
     12 CAU        22.3538   -0.3240   -8.3351 C.ar        1 G97       0.0730
     13 NAQ        22.3081    0.8302   -7.5895 N.am        1 G97      -0.2295
     14 CAT        22.2909    1.0314   -6.2746 C.2         1 G97       0.2258
     15 OAB        22.4023    0.1509   -5.4340 O.2         1 G97      -0.3745
     16 CAC        21.9679    2.2591   -5.8250 C.2         1 G97       0.0150
     17 CAA        22.7957    3.0305   -5.1058 C.2         1 G97      -0.0781
     18 CAK        22.3709   -1.6460   -7.8276 C.ar        1 G97      -0.0283
     19 CAL        22.2743   -2.7534   -8.6829 C.ar        1 G97      -0.0465
     20 C5         22.1570   -2.5934  -10.0852 C.ar        1 G97       0.0455
     21 C6         22.0361   -3.6485  -11.0348 C.ar        1 G97       0.1561
     22 NAR        21.8799   -4.9806  -10.8371 N.pl3       1 G97      -0.2206
     23 CAV        21.2330   -5.6042   -9.8243 C.2         1 G97       0.1818
     24 CAJ        20.2037   -5.1157   -9.0322 C.2         1 G97      -0.0280
     25 CAG        19.7934   -6.1788   -8.2468 C.2         1 G97      -0.0243
     26 NAS        20.5240   -7.2510   -8.5928 N.2         1 G97      -0.2412
     27 NAN        21.3544   -6.9066   -9.5278 N.pl3       1 G97      -0.2006
     28 H1         22.5843    0.2088  -14.2086 H           1 G97       0.0660
     29 H2         22.3263    0.6322  -16.5542 H           1 G97       0.0628
     30 H3         21.4393   -1.0892  -18.0201 H           1 G97       0.0649
     31 H4         20.8413   -3.2622  -17.1076 H           1 G97       0.0628
     32 H5         21.1299   -3.7263  -14.7745 H           1 G97       0.0660
     33 H6         22.3000    0.7824  -10.1423 H           1 G97       0.0447
     34 H7         22.2028    1.6408   -8.1155 H           1 G97       0.2290
     35 H8         21.0644    2.6105   -6.0539 H           1 G97       0.0698
     36 H9         22.5013    3.9361   -4.8195 H           1 G97       0.0686
     37 H10        23.7097    2.7258   -4.8571 H           1 G97       0.0686
     38 H11        22.4126   -1.8242   -6.8263 H           1 G97       0.0570
     39 H12        22.2447   -3.6705   -8.2420 H           1 G97       0.0666
     40 H13        22.0510   -5.5431  -11.6102 H           1 G97       0.2279
     41 H14        19.8459   -4.1596   -9.0440 H           1 G97       0.0216
     42 H15        19.0510   -6.1617   -7.5465 H           1 G97       0.0607
     43 H16        21.9800   -7.5142   -9.9557 H           1 G97       0.2521
@<TRIPOS>BOND
     1     1     2  ar
     2     1     6  ar
     3     2     3  ar
     4     3     4  ar
     5     4     5  ar
     6     5     6  ar
     7     6     7   1
     8     7     8  ar
     9     7     9  ar
    10     8    21  ar
    11     9    10  ar
    12    10    11  ar
    13    10    20  ar
    14    11    12  ar
    15    12    13   1
    16    12    18  ar
    17    13    14  am
    18    14    15   2
    19    14    16   1
    20    16    17   2
    21    18    19  ar
    22    19    20  ar
    23    20    21  ar
    24    21    22   1
    25    22    23   1
    26    23    24   2
    27    23    27   1
    28    24    25   1
    29    25    26   2
    30    26    27   1
    31     1    28   1
    32     2    29   1
    33     3    30   1
    34     4    31   1
    35     5    32   1
    36    11    33   1
    37    13    34   1
    38    16    35   1
    39    17    36   1
    40    17    37   1
    41    18    38   1
    42    19    39   1
    43    22    40   1
    44    24    41   1
    45    25    42   1
    46    27    43   1
@<TRIPOS>SUBSTRUCTURE
     1  G97      1

