@<TRIPOS>MOLECULE
3huc_ligand_042
    43    46
SMALL
GAST_HUCK
****
This file was generated by PARSER (from files_GN.cpp)

@<TRIPOS>ATOM
      1 CAH        20.5879    2.4210   -9.2580 C.ar        1 G97      -0.0465
      2 CAE        20.0902    3.2823   -8.2634 C.ar        1 G97      -0.0569
      3 CAD        18.7375    3.6584   -8.2687 C.ar        1 G97      -0.0580
      4 CAF        17.8854    3.1814   -9.2799 C.ar        1 G97      -0.0569
      5 CAI        18.3881    2.3312  -10.2856 C.ar        1 G97      -0.0465
      6 CAW        19.7461    1.9299  -10.2848 C.ar        1 G97       0.0141
      7 C2         20.2500    1.0524  -11.2801 C.ar        1 G97       0.0921
      8 N1         20.6704    1.5084  -12.4844 N.ar        1 G97      -0.2553
      9 N3         20.2972   -0.2836  -11.0692 N.ar        1 G97      -0.3009
     10 C4         20.7750   -1.1500  -11.9949 C.ar        1 G97       0.0255
     11 CAM        20.7606   -2.5229  -11.6847 C.ar        1 G97      -0.0253
     12 CAU        21.2736   -3.4760  -12.5950 C.ar        1 G97       0.0730
     13 NAQ        21.2500   -4.8432  -12.4350 N.am        1 G97      -0.2295
     14 CAT        20.6502   -5.6295  -11.5403 C.2         1 G97       0.2258
     15 OAB        19.9694   -5.1747  -10.6308 O.2         1 G97      -0.3745
     16 CAC        20.7440   -6.9820  -11.6933 C.2         1 G97       0.0150
     17 CAA        21.0927   -7.8547  -10.7329 C.2         1 G97      -0.0781
     18 CAK        21.8856   -2.9877  -13.7736 C.ar        1 G97      -0.0283
     19 CAL        21.9101   -1.6118  -14.0758 C.ar        1 G97      -0.0465
     20 C5         21.2829   -0.6681  -13.2357 C.ar        1 G97       0.0455
     21 C6         21.1641    0.7310  -13.4848 C.ar        1 G97       0.1561
     22 NAR        21.4140    1.5028  -14.5734 N.pl3       1 G97      -0.2206
     23 CAV        21.6720    1.2599  -15.8859 C.2         1 G97       0.1818
     24 CAJ        21.9769    2.3012  -16.7536 C.2         1 G97      -0.0280
     25 CAG        22.1061    1.7414  -18.0121 C.2         1 G97      -0.0243
     26 NAS        21.8474    0.4298  -17.9017 N.2         1 G97      -0.2412
     27 NAN        21.5786    0.1643  -16.6620 N.pl3       1 G97      -0.2006
     28 H1         21.5801    2.1680   -9.2342 H           1 G97       0.0660
     29 H2         20.7110    3.6313   -7.5290 H           1 G97       0.0628
     30 H3         18.3723    4.2728   -7.5378 H           1 G97       0.0649
     31 H4         16.8998    3.4479   -9.2827 H           1 G97       0.0628
     32 H5         17.7465    1.9902  -11.0047 H           1 G97       0.0660
     33 H6         20.3709   -2.8097  -10.7863 H           1 G97       0.0447
     34 H7         21.7206   -5.3271  -13.1315 H           1 G97       0.2290
     35 H8         20.5412   -7.3688  -12.5876 H           1 G97       0.0698
     36 H9         21.1333   -8.8266  -10.9346 H           1 G97       0.0686
     37 H10        21.3238   -7.5578   -9.8143 H           1 G97       0.0686
     38 H11        22.3314   -3.6410  -14.4234 H           1 G97       0.0570
     39 H12        22.4448   -1.3126  -14.8858 H           1 G97       0.0666
     40 H13        21.3209    2.4517  -14.3893 H           1 G97       0.2279
     41 H14        22.0541    3.2941  -16.5276 H           1 G97       0.0216
     42 H15        22.3173    2.2415  -18.8767 H           1 G97       0.0607
     43 H16        21.3110   -0.7159  -16.3512 H           1 G97       0.2521
@<TRIPOS>BOND
     1     1     2  ar
     2     1     6  ar
     3     2     3  ar
     4     3     4  ar
     5     4     5  ar
     6     5     6  ar
     7     6     7   1
     8     7     8  ar
     9     7     9  ar
    10     8    21  ar
    11     9    10  ar
    12    10    11  ar
    13    10    20  ar
    14    11    12  ar
    15    12    13   1
    16    12    18  ar
    17    13    14  am
    18    14    15   2
    19    14    16   1
    20    16    17   2
    21    18    19  ar
    22    19    20  ar
    23    20    21  ar
    24    21    22   1
    25    22    23   1
    26    23    24   2
    27    23    27   1
    28    24    25   1
    29    25    26   2
    30    26    27   1
    31     1    28   1
    32     2    29   1
    33     3    30   1
    34     4    31   1
    35     5    32   1
    36    11    33   1
    37    13    34   1
    38    16    35   1
    39    17    36   1
    40    17    37   1
    41    18    38   1
    42    19    39   1
    43    22    40   1
    44    24    41   1
    45    25    42   1
    46    27    43   1
@<TRIPOS>SUBSTRUCTURE
     1  G97      1

