@<TRIPOS>MOLECULE
3huc_ligand_008
    43    46
SMALL
GAST_HUCK
****
This file was generated by PARSER (from files_GN.cpp)

@<TRIPOS>ATOM
      1 CAH        21.7737   -0.6158  -14.9843 C.ar        1 G97      -0.0465
      2 CAE        21.3248   -0.4837  -13.6580 C.ar        1 G97      -0.0569
      3 CAD        20.9557    0.7804  -13.1635 C.ar        1 G97      -0.0580
      4 CAF        21.0660    1.9123  -13.9871 C.ar        1 G97      -0.0569
      5 CAI        21.5297    1.7804  -15.3049 C.ar        1 G97      -0.0465
      6 CAW        21.8692    0.5083  -15.8393 C.ar        1 G97       0.0141
      7 C2         22.2242    0.3661  -17.2073 C.ar        1 G97       0.0921
      8 N1         22.2893    1.4516  -18.0148 N.ar        1 G97      -0.2553
      9 N3         22.4272   -0.8419  -17.7916 N.ar        1 G97      -0.3009
     10 C4         22.6369   -0.9842  -19.1246 C.ar        1 G97       0.0255
     11 CAM        22.7276   -2.2909  -19.6444 C.ar        1 G97      -0.0253
     12 CAU        22.8127   -2.5001  -21.0390 C.ar        1 G97       0.0730
     13 NAQ        22.7834   -3.7487  -21.6114 N.am        1 G97      -0.2295
     14 CAT        23.2600   -4.9055  -21.1596 C.2         1 G97       0.2258
     15 OAB        23.9117   -4.9974  -20.1244 O.2         1 G97      -0.3745
     16 CAC        23.0557   -6.0199  -21.8921 C.2         1 G97       0.0150
     17 CAA        24.0433   -6.7810  -22.3850 C.2         1 G97      -0.0781
     18 CAK        22.7665   -1.3732  -21.8908 C.ar        1 G97      -0.0283
     19 CAL        22.6772   -0.0663  -21.3659 C.ar        1 G97      -0.0465
     20 C5         22.6508    0.1632  -19.9731 C.ar        1 G97       0.0455
     21 C6         22.5270    1.4399  -19.3481 C.ar        1 G97       0.1561
     22 NAR        22.5293    2.7228  -19.7955 N.pl3       1 G97      -0.2206
     23 CAV        22.8473    3.3092  -20.9704 C.2         1 G97       0.1818
     24 CAJ        22.4398    4.5949  -21.2994 C.2         1 G97      -0.0280
     25 CAG        22.9929    4.8585  -22.5428 C.2         1 G97      -0.0243
     26 NAS        23.7314    3.7977  -22.9084 N.2         1 G97      -0.2412
     27 NAN        23.6536    2.9047  -21.9704 N.pl3       1 G97      -0.2006
     28 H1         22.0128   -1.5525  -15.3207 H           1 G97       0.0660
     29 H2         21.2570   -1.3056  -13.0548 H           1 G97       0.0628
     30 H3         20.6140    0.8753  -12.2039 H           1 G97       0.0649
     31 H4         20.8167    2.8358  -13.6235 H           1 G97       0.0628
     32 H5         21.5951    2.6273  -15.8787 H           1 G97       0.0660
     33 H6         22.6495   -3.0890  -19.0113 H           1 G97       0.0447
     34 H7         22.3625   -3.7856  -22.4856 H           1 G97       0.2290
     35 H8         22.1184   -6.2687  -22.1064 H           1 G97       0.0698
     36 H9         23.8326   -7.5792  -22.9360 H           1 G97       0.0686
     37 H10        24.9972   -6.5681  -22.2124 H           1 G97       0.0686
     38 H11        22.7634   -1.4972  -22.9086 H           1 G97       0.0570
     39 H12        22.5419    0.6996  -22.0198 H           1 G97       0.0666
     40 H13        22.2754    3.3670  -19.1150 H           1 G97       0.2279
     41 H14        21.8413    5.2234  -20.7581 H           1 G97       0.0216
     42 H15        22.8605    5.7063  -23.0927 H           1 G97       0.0607
     43 H16        24.1214    2.0584  -21.9905 H           1 G97       0.2521
@<TRIPOS>BOND
     1     1     2  ar
     2     1     6  ar
     3     2     3  ar
     4     3     4  ar
     5     4     5  ar
     6     5     6  ar
     7     6     7   1
     8     7     8  ar
     9     7     9  ar
    10     8    21  ar
    11     9    10  ar
    12    10    11  ar
    13    10    20  ar
    14    11    12  ar
    15    12    13   1
    16    12    18  ar
    17    13    14  am
    18    14    15   2
    19    14    16   1
    20    16    17   2
    21    18    19  ar
    22    19    20  ar
    23    20    21  ar
    24    21    22   1
    25    22    23   1
    26    23    24   2
    27    23    27   1
    28    24    25   1
    29    25    26   2
    30    26    27   1
    31     1    28   1
    32     2    29   1
    33     3    30   1
    34     4    31   1
    35     5    32   1
    36    11    33   1
    37    13    34   1
    38    16    35   1
    39    17    36   1
    40    17    37   1
    41    18    38   1
    42    19    39   1
    43    22    40   1
    44    24    41   1
    45    25    42   1
    46    27    43   1
@<TRIPOS>SUBSTRUCTURE
     1  G97      1

