@<TRIPOS>MOLECULE
3huc_ligand_016
    43    46
SMALL
GAST_HUCK
****
This file was generated by PARSER (from files_GN.cpp)

@<TRIPOS>ATOM
      1 CAH        19.0675   -4.0433  -14.2711 C.ar        1 G97      -0.0465
      2 CAE        18.5270   -5.2230  -13.7262 C.ar        1 G97      -0.0569
      3 CAD        18.3664   -5.3459  -12.3356 C.ar        1 G97      -0.0580
      4 CAF        18.7393   -4.2860  -11.4926 C.ar        1 G97      -0.0569
      5 CAI        19.2723   -3.1037  -12.0407 C.ar        1 G97      -0.0465
      6 CAW        19.4485   -2.9588  -13.4407 C.ar        1 G97       0.0141
      7 C2         20.0070   -1.7720  -13.9945 C.ar        1 G97       0.0921
      8 N1         20.0317   -0.6049  -13.3006 N.ar        1 G97      -0.2553
      9 N3         20.5441   -1.7610  -15.2407 N.ar        1 G97      -0.3009
     10 C4         21.1086   -0.6585  -15.7895 C.ar        1 G97       0.0255
     11 CAM        21.7031   -0.7668  -17.0610 C.ar        1 G97      -0.0253
     12 CAU        22.3822    0.3302  -17.6366 C.ar        1 G97       0.0730
     13 NAQ        23.0042    0.3030  -18.8550 N.am        1 G97      -0.2295
     14 CAT        23.6283   -0.7046  -19.4565 C.2         1 G97       0.2258
     15 OAB        23.7417   -1.8036  -18.9246 O.2         1 G97      -0.3745
     16 CAC        24.2007   -0.4762  -20.6664 C.2         1 G97       0.0150
     17 CAA        25.3416   -1.0392  -21.0908 C.2         1 G97      -0.0781
     18 CAK        22.4169    1.5447  -16.9218 C.ar        1 G97      -0.0283
     19 CAL        21.8213    1.6547  -15.6531 C.ar        1 G97      -0.0465
     20 C5         21.1334    0.5664  -15.0666 C.ar        1 G97       0.0455
     21 C6         20.5303    0.5659  -13.7756 C.ar        1 G97       0.1561
     22 NAR        20.3694    1.5804  -12.8912 N.pl3       1 G97      -0.2206
     23 CAV        20.3357    2.9161  -13.1069 C.2         1 G97       0.1818
     24 CAJ        19.7256    3.6196  -14.1378 C.2         1 G97      -0.0280
     25 CAG        19.8994    4.9586  -13.8312 C.2         1 G97      -0.0243
     26 NAS        20.5563    5.0370  -12.6629 N.2         1 G97      -0.2412
     27 NAN        20.7889    3.8325  -12.2399 N.pl3       1 G97      -0.2006
     28 H1         19.1696   -3.9823  -15.2864 H           1 G97       0.0660
     29 H2         18.2553   -5.9923  -14.3421 H           1 G97       0.0628
     30 H3         17.9771   -6.2034  -11.9372 H           1 G97       0.0649
     31 H4         18.6231   -4.3745  -10.4791 H           1 G97       0.0628
     32 H5         19.5441   -2.3541  -11.3986 H           1 G97       0.0660
     33 H6         21.6350   -1.6523  -17.5657 H           1 G97       0.0447
     34 H7         23.0704    1.1620  -19.3044 H           1 G97       0.2290
     35 H8         23.7625    0.1769  -21.2766 H           1 G97       0.0698
     36 H9         25.7063   -0.8093  -21.9841 H           1 G97       0.0686
     37 H10        25.8508   -1.6771  -20.5256 H           1 G97       0.0686
     38 H11        22.9093    2.3553  -17.3083 H           1 G97       0.0570
     39 H12        21.9331    2.5341  -15.1594 H           1 G97       0.0666
     40 H13        20.1390    1.3119  -11.9874 H           1 G97       0.2279
     41 H14        19.2277    3.2380  -14.9426 H           1 G97       0.0216
     42 H15        19.5686    5.7503  -14.3824 H           1 G97       0.0607
     43 H16        21.2428    3.6227  -11.4087 H           1 G97       0.2521
@<TRIPOS>BOND
     1     1     2  ar
     2     1     6  ar
     3     2     3  ar
     4     3     4  ar
     5     4     5  ar
     6     5     6  ar
     7     6     7   1
     8     7     8  ar
     9     7     9  ar
    10     8    21  ar
    11     9    10  ar
    12    10    11  ar
    13    10    20  ar
    14    11    12  ar
    15    12    13   1
    16    12    18  ar
    17    13    14  am
    18    14    15   2
    19    14    16   1
    20    16    17   2
    21    18    19  ar
    22    19    20  ar
    23    20    21  ar
    24    21    22   1
    25    22    23   1
    26    23    24   2
    27    23    27   1
    28    24    25   1
    29    25    26   2
    30    26    27   1
    31     1    28   1
    32     2    29   1
    33     3    30   1
    34     4    31   1
    35     5    32   1
    36    11    33   1
    37    13    34   1
    38    16    35   1
    39    17    36   1
    40    17    37   1
    41    18    38   1
    42    19    39   1
    43    22    40   1
    44    24    41   1
    45    25    42   1
    46    27    43   1
@<TRIPOS>SUBSTRUCTURE
     1  G97      1

