@<TRIPOS>MOLECULE
3huc_ligand_083
    43    46
SMALL
GAST_HUCK
****
This file was generated by PARSER (from files_GN.cpp)

@<TRIPOS>ATOM
      1 CAH        15.8826   -2.5530  -12.3992 C.ar        1 G97      -0.0465
      2 CAE        14.8062   -2.8664  -13.2512 C.ar        1 G97      -0.0569
      3 CAD        14.8070   -4.0718  -13.9732 C.ar        1 G97      -0.0580
      4 CAF        15.8838   -4.9640  -13.8395 C.ar        1 G97      -0.0569
      5 CAI        16.9638   -4.6452  -12.9943 C.ar        1 G97      -0.0465
      6 CAW        16.9873   -3.4333  -12.2555 C.ar        1 G97       0.0141
      7 C2         18.0874   -3.1068  -11.4071 C.ar        1 G97       0.0921
      8 N1         18.0317   -2.0695  -10.5306 N.ar        1 G97      -0.2553
      9 N3         19.2526   -3.8011  -11.4600 N.ar        1 G97      -0.3009
     10 C4         20.3182   -3.5185  -10.6706 C.ar        1 G97       0.0255
     11 CAM        21.4687   -4.3215  -10.7761 C.ar        1 G97      -0.0253
     12 CAU        22.5760   -4.1250   -9.9233 C.ar        1 G97       0.0730
     13 NAQ        23.6525   -4.9490  -10.1342 N.am        1 G97      -0.2295
     14 CAT        24.7242   -5.2048   -9.3885 C.2         1 G97       0.2258
     15 OAB        24.8747   -4.7519   -8.2622 O.2         1 G97      -0.3745
     16 CAC        25.6680   -6.0713   -9.8260 C.2         1 G97       0.0150
     17 CAA        26.1185   -6.1436  -11.0857 C.2         1 G97      -0.0781
     18 CAK        22.4917   -3.0971   -8.9543 C.ar        1 G97      -0.0283
     19 CAL        21.3464   -2.2841   -8.8561 C.ar        1 G97      -0.0465
     20 C5         20.2513   -2.4489   -9.7357 C.ar        1 G97       0.0455
     21 C6         19.0502   -1.6832   -9.7184 C.ar        1 G97       0.1561
     22 NAR        18.7318   -0.5706   -9.0088 N.pl3       1 G97      -0.2206
     23 CAV        19.5326    0.3873   -8.4822 C.2         1 G97       0.1818
     24 CAJ        20.7598    0.8549   -8.9294 C.2         1 G97      -0.0280
     25 CAG        21.0785    1.9256   -8.1103 C.2         1 G97      -0.0243
     26 NAS        20.0663    2.1045   -7.2445 N.2         1 G97      -0.2412
     27 NAN        19.1627    1.2041   -7.4804 N.pl3       1 G97      -0.2006
     28 H1         15.8521   -1.6640  -11.8942 H           1 G97       0.0660
     29 H2         14.0224   -2.2158  -13.3463 H           1 G97       0.0628
     30 H3         14.0258   -4.3002  -14.5931 H           1 G97       0.0649
     31 H4         15.8835   -5.8456  -14.3586 H           1 G97       0.0628
     32 H5         17.7313   -5.3180  -12.9217 H           1 G97       0.0660
     33 H6         21.4902   -5.0706  -11.4761 H           1 G97       0.0447
     34 H7         23.6141   -5.4510  -10.9655 H           1 G97       0.2290
     35 H8         26.0772   -6.6828   -9.1582 H           1 G97       0.0698
     36 H9         26.8192   -6.8053  -11.3241 H           1 G97       0.0686
     37 H10        25.7784   -5.5392  -11.7965 H           1 G97       0.0686
     38 H11        23.2648   -2.9110   -8.3153 H           1 G97       0.0570
     39 H12        21.3234   -1.5899   -8.1109 H           1 G97       0.0666
     40 H13        17.7873   -0.3529   -8.9866 H           1 G97       0.2279
     41 H14        21.3036    0.5014   -9.7189 H           1 G97       0.0216
     42 H15        21.9186    2.5029   -8.1771 H           1 G97       0.0607
     43 H16        18.3300    1.1282   -6.9896 H           1 G97       0.2521
@<TRIPOS>BOND
     1     1     2  ar
     2     1     6  ar
     3     2     3  ar
     4     3     4  ar
     5     4     5  ar
     6     5     6  ar
     7     6     7   1
     8     7     8  ar
     9     7     9  ar
    10     8    21  ar
    11     9    10  ar
    12    10    11  ar
    13    10    20  ar
    14    11    12  ar
    15    12    13   1
    16    12    18  ar
    17    13    14  am
    18    14    15   2
    19    14    16   1
    20    16    17   2
    21    18    19  ar
    22    19    20  ar
    23    20    21  ar
    24    21    22   1
    25    22    23   1
    26    23    24   2
    27    23    27   1
    28    24    25   1
    29    25    26   2
    30    26    27   1
    31     1    28   1
    32     2    29   1
    33     3    30   1
    34     4    31   1
    35     5    32   1
    36    11    33   1
    37    13    34   1
    38    16    35   1
    39    17    36   1
    40    17    37   1
    41    18    38   1
    42    19    39   1
    43    22    40   1
    44    24    41   1
    45    25    42   1
    46    27    43   1
@<TRIPOS>SUBSTRUCTURE
     1  G97      1

