@<TRIPOS>MOLECULE
3huc_ligand_082
    43    46
SMALL
GAST_HUCK
****
This file was generated by PARSER (from files_GN.cpp)

@<TRIPOS>ATOM
      1 CAH        21.3002    0.6324  -11.1100 C.ar        1 G97      -0.0465
      2 CAE        20.4961    0.8176  -12.2525 C.ar        1 G97      -0.0569
      3 CAD        19.5264    1.8337  -12.2717 C.ar        1 G97      -0.0580
      4 CAF        19.3659    2.6654  -11.1499 C.ar        1 G97      -0.0569
      5 CAI        20.1754    2.4816  -10.0101 C.ar        1 G97      -0.0465
      6 CAW        21.1590    1.4588   -9.9654 C.ar        1 G97       0.0141
      7 C2         21.9770    1.2644   -8.8134 C.ar        1 G97       0.0921
      8 N1         21.6761    1.8435   -7.6203 N.ar        1 G97      -0.2553
      9 N3         23.1083    0.5137   -8.8645 N.ar        1 G97      -0.3009
     10 C4         23.8949    0.2885   -7.7829 C.ar        1 G97       0.0255
     11 CAM        25.0578   -0.4969   -7.9258 C.ar        1 G97      -0.0253
     12 CAU        25.8682   -0.7832   -6.8054 C.ar        1 G97       0.0730
     13 NAQ        27.0608   -1.4403   -6.8993 N.am        1 G97      -0.2295
     14 CAT        27.3312   -2.6416   -7.3994 C.2         1 G97       0.2258
     15 OAB        28.4999   -2.9886   -7.2801 O.2         1 G97      -0.3745
     16 CAC        26.4293   -3.5254   -7.9103 C.2         1 G97       0.0150
     17 CAA        26.4326   -4.8409   -7.6459 C.2         1 G97      -0.0781
     18 CAK        25.4668   -0.3098   -5.5387 C.ar        1 G97      -0.0283
     19 CAL        24.2866    0.4420   -5.3935 C.ar        1 G97      -0.0465
     20 C5         23.5343    0.8383   -6.5201 C.ar        1 G97       0.0455
     21 C6         22.4082    1.7052   -6.4837 C.ar        1 G97       0.1561
     22 NAR        21.9315    2.4773   -5.4746 N.pl3       1 G97      -0.2206
     23 CAV        22.5069    2.9395   -4.3335 C.2         1 G97       0.1818
     24 CAJ        23.8199    3.2794   -4.0058 C.2         1 G97      -0.0280
     25 CAG        23.7714    3.7698   -2.7105 C.2         1 G97      -0.0243
     26 NAS        22.4886    3.7690   -2.3101 N.2         1 G97      -0.2412
     27 NAN        21.7608    3.2928   -3.2718 N.pl3       1 G97      -0.2006
     28 H1         21.9807   -0.1296  -11.1208 H           1 G97       0.0660
     29 H2         20.6187    0.2131  -13.0685 H           1 G97       0.0628
     30 H3         18.9402    1.9683  -13.1000 H           1 G97       0.0649
     31 H4         18.6638    3.4098  -11.1652 H           1 G97       0.0628
     32 H5         20.0390    3.1119   -9.2151 H           1 G97       0.0660
     33 H6         25.3357   -0.8225   -8.8545 H           1 G97       0.0447
     34 H7         27.8009   -1.0129   -6.4378 H           1 G97       0.2290
     35 H8         25.7000   -3.1803   -8.4910 H           1 G97       0.0698
     36 H9         25.7345   -5.4291   -8.0382 H           1 G97       0.0686
     37 H10        27.1119   -5.2518   -7.0455 H           1 G97       0.0686
     38 H11        26.0149   -0.5424   -4.7059 H           1 G97       0.0570
     39 H12        23.9612    0.6630   -4.4562 H           1 G97       0.0666
     40 H13        21.0408    2.8306   -5.6304 H           1 G97       0.2279
     41 H14        24.6653    3.2098   -4.5800 H           1 G97       0.0216
     42 H15        24.5646    4.1078   -2.1595 H           1 G97       0.0607
     43 H16        20.7975    3.1935   -3.2240 H           1 G97       0.2521
@<TRIPOS>BOND
     1     1     2  ar
     2     1     6  ar
     3     2     3  ar
     4     3     4  ar
     5     4     5  ar
     6     5     6  ar
     7     6     7   1
     8     7     8  ar
     9     7     9  ar
    10     8    21  ar
    11     9    10  ar
    12    10    11  ar
    13    10    20  ar
    14    11    12  ar
    15    12    13   1
    16    12    18  ar
    17    13    14  am
    18    14    15   2
    19    14    16   1
    20    16    17   2
    21    18    19  ar
    22    19    20  ar
    23    20    21  ar
    24    21    22   1
    25    22    23   1
    26    23    24   2
    27    23    27   1
    28    24    25   1
    29    25    26   2
    30    26    27   1
    31     1    28   1
    32     2    29   1
    33     3    30   1
    34     4    31   1
    35     5    32   1
    36    11    33   1
    37    13    34   1
    38    16    35   1
    39    17    36   1
    40    17    37   1
    41    18    38   1
    42    19    39   1
    43    22    40   1
    44    24    41   1
    45    25    42   1
    46    27    43   1
@<TRIPOS>SUBSTRUCTURE
     1  G97      1

