@<TRIPOS>MOLECULE
3huc_ligand_021
    43    46
SMALL
GAST_HUCK
****
This file was generated by PARSER (from files_GN.cpp)

@<TRIPOS>ATOM
      1 CAH        17.8916   -4.4711   -6.7118 C.ar        1 G97      -0.0465
      2 CAE        16.8050   -3.8742   -6.0427 C.ar        1 G97      -0.0569
      3 CAD        15.9380   -3.0091   -6.7382 C.ar        1 G97      -0.0580
      4 CAF        16.1580   -2.7383   -8.1022 C.ar        1 G97      -0.0569
      5 CAI        17.2384   -3.3401   -8.7748 C.ar        1 G97      -0.0465
      6 CAW        18.1106   -4.2095   -8.0834 C.ar        1 G97       0.0141
      7 C2         19.1383   -4.8661   -8.7721 C.ar        1 G97       0.0921
      8 N1         18.8458   -5.9181   -9.5679 N.ar        1 G97      -0.2553
      9 N3         20.4240   -4.4580   -8.6527 N.ar        1 G97      -0.3009
     10 C4         21.4325   -5.0863   -9.3116 C.ar        1 G97       0.0255
     11 CAM        22.7494   -4.6123   -9.1646 C.ar        1 G97      -0.0253
     12 CAU        23.8332   -5.2573   -9.8101 C.ar        1 G97       0.0730
     13 NAQ        25.1463   -4.8684   -9.7164 N.am        1 G97      -0.2295
     14 CAT        25.7774   -4.1994   -8.7567 C.2         1 G97       0.2258
     15 OAB        25.2342   -3.8282   -7.7214 O.2         1 G97      -0.3745
     16 CAC        27.0947   -3.9543   -8.8980 C.2         1 G97       0.0150
     17 CAA        28.0335   -4.4789   -8.0928 C.2         1 G97      -0.0781
     18 CAK        23.5425   -6.3583  -10.6458 C.ar        1 G97      -0.0283
     19 CAL        22.2248   -6.8301  -10.8082 C.ar        1 G97      -0.0465
     20 C5         21.1449   -6.2034  -10.1415 C.ar        1 G97       0.0455
     21 C6         19.7868   -6.6122  -10.2611 C.ar        1 G97       0.1561
     22 NAR        19.4289   -7.6582  -11.0474 N.pl3       1 G97      -0.2206
     23 CAV        18.1941   -8.1740  -11.2964 C.2         1 G97       0.1818
     24 CAJ        16.9159   -7.8512  -10.8531 C.2         1 G97      -0.0280
     25 CAG        16.0598   -8.7508  -11.4665 C.2         1 G97      -0.0243
     26 NAS        16.7930   -9.5685  -12.2386 N.2         1 G97      -0.2412
     27 NAN        18.0380   -9.2194  -12.1286 N.pl3       1 G97      -0.2006
     28 H1         18.5045   -5.1069   -6.1973 H           1 G97       0.0660
     29 H2         16.6387   -4.0753   -5.0550 H           1 G97       0.0628
     30 H3         15.1448   -2.5816   -6.2534 H           1 G97       0.0649
     31 H4         15.5276   -2.1111   -8.6054 H           1 G97       0.0628
     32 H5         17.3796   -3.1420   -9.7680 H           1 G97       0.0660
     33 H6         22.9080   -3.7748   -8.6009 H           1 G97       0.0447
     34 H7         25.7154   -5.1866  -10.4343 H           1 G97       0.2290
     35 H8         27.3920   -3.3830   -9.6570 H           1 G97       0.0698
     36 H9         28.9910   -4.2724   -8.2465 H           1 G97       0.0686
     37 H10        27.7955   -5.0873   -7.3447 H           1 G97       0.0686
     38 H11        24.3012   -6.8444  -11.1376 H           1 G97       0.0570
     39 H12        22.0700   -7.6394  -11.4113 H           1 G97       0.0666
     40 H13        20.1564   -8.1084  -11.5120 H           1 G97       0.2279
     41 H14        16.6294   -7.1104  -10.2068 H           1 G97       0.0216
     42 H15        15.0469   -8.7873  -11.3527 H           1 G97       0.0607
     43 H16        18.7699   -9.6596  -12.5916 H           1 G97       0.2521
@<TRIPOS>BOND
     1     1     2  ar
     2     1     6  ar
     3     2     3  ar
     4     3     4  ar
     5     4     5  ar
     6     5     6  ar
     7     6     7   1
     8     7     8  ar
     9     7     9  ar
    10     8    21  ar
    11     9    10  ar
    12    10    11  ar
    13    10    20  ar
    14    11    12  ar
    15    12    13   1
    16    12    18  ar
    17    13    14  am
    18    14    15   2
    19    14    16   1
    20    16    17   2
    21    18    19  ar
    22    19    20  ar
    23    20    21  ar
    24    21    22   1
    25    22    23   1
    26    23    24   2
    27    23    27   1
    28    24    25   1
    29    25    26   2
    30    26    27   1
    31     1    28   1
    32     2    29   1
    33     3    30   1
    34     4    31   1
    35     5    32   1
    36    11    33   1
    37    13    34   1
    38    16    35   1
    39    17    36   1
    40    17    37   1
    41    18    38   1
    42    19    39   1
    43    22    40   1
    44    24    41   1
    45    25    42   1
    46    27    43   1
@<TRIPOS>SUBSTRUCTURE
     1  G97      1

