@<TRIPOS>MOLECULE
3huc_ligand_090
    43    46
SMALL
GAST_HUCK
****
This file was generated by PARSER (from files_GN.cpp)

@<TRIPOS>ATOM
      1 CAH        21.8814   -0.6636  -10.5891 C.ar        1 G97      -0.0465
      2 CAE        21.8534    0.4220   -9.6921 C.ar        1 G97      -0.0569
      3 CAD        20.6594    1.1368   -9.4889 C.ar        1 G97      -0.0580
      4 CAF        19.4904    0.7653  -10.1780 C.ar        1 G97      -0.0569
      5 CAI        19.5176   -0.3140  -11.0821 C.ar        1 G97      -0.0465
      6 CAW        20.7171   -1.0222  -11.2994 C.ar        1 G97       0.0141
      7 C2         20.7459   -2.0938  -12.2027 C.ar        1 G97       0.0921
      8 N1         20.4867   -3.3425  -11.7670 N.ar        1 G97      -0.2553
      9 N3         21.0138   -1.9168  -13.5179 N.ar        1 G97      -0.3009
     10 C4         21.0257   -2.9623  -14.3846 C.ar        1 G97       0.0255
     11 CAM        21.3002   -2.7148  -15.7426 C.ar        1 G97      -0.0253
     12 CAU        21.3478   -3.7693  -16.6822 C.ar        1 G97       0.0730
     13 NAQ        21.6530   -3.4196  -17.9751 N.am        1 G97      -0.2295
     14 CAT        22.1089   -4.1379  -18.9985 C.2         1 G97       0.2258
     15 OAB        22.3697   -5.3296  -18.8797 O.2         1 G97      -0.3745
     16 CAC        22.3518   -3.5035  -20.1791 C.2         1 G97       0.0150
     17 CAA        22.8799   -4.0647  -21.2767 C.2         1 G97      -0.0781
     18 CAK        21.0823   -5.0812  -16.2238 C.ar        1 G97      -0.0283
     19 CAL        20.7857   -5.3336  -14.8703 C.ar        1 G97      -0.0465
     20 C5         20.7594   -4.2828  -13.9284 C.ar        1 G97       0.0455
     21 C6         20.4784   -4.4544  -12.5483 C.ar        1 G97       0.1561
     22 NAR        20.2091   -5.6662  -11.9917 N.pl3       1 G97      -0.2206
     23 CAV        19.9253   -5.9488  -10.6857 C.2         1 G97       0.1818
     24 CAJ        19.8342   -5.1405   -9.5563 C.2         1 G97      -0.0280
     25 CAG        19.5272   -5.9735   -8.5015 C.2         1 G97      -0.0243
     26 NAS        19.4447   -7.2243   -8.9749 N.2         1 G97      -0.2412
     27 NAN        19.6712   -7.1973  -10.2525 N.pl3       1 G97      -0.2006
     28 H1         22.7546   -1.1814  -10.7176 H           1 G97       0.0660
     29 H2         22.7021    0.6892   -9.1869 H           1 G97       0.0628
     30 H3         20.6390    1.9249   -8.8361 H           1 G97       0.0649
     31 H4         18.6212    1.2816  -10.0250 H           1 G97       0.0628
     32 H5         18.6581   -0.5752  -11.5729 H           1 G97       0.0660
     33 H6         21.4920   -1.7538  -16.0463 H           1 G97       0.0447
     34 H7         21.5838   -2.4682  -18.1550 H           1 G97       0.2290
     35 H8         22.1119   -2.5405  -20.2529 H           1 G97       0.0698
     36 H9         23.0036   -3.5202  -22.0948 H           1 G97       0.0686
     37 H10        23.1486   -5.0188  -21.3018 H           1 G97       0.0686
     38 H11        21.0859   -5.8705  -16.8702 H           1 G97       0.0570
     39 H12        20.5907   -6.2947  -14.5867 H           1 G97       0.0666
     40 H13        20.2258   -6.4282  -12.5941 H           1 G97       0.2279
     41 H14        19.9687   -4.1333   -9.4799 H           1 G97       0.0216
     42 H15        19.3936   -5.6865   -7.5318 H           1 G97       0.0607
     43 H16        19.6633   -7.9851  -10.8192 H           1 G97       0.2521
@<TRIPOS>BOND
     1     1     2  ar
     2     1     6  ar
     3     2     3  ar
     4     3     4  ar
     5     4     5  ar
     6     5     6  ar
     7     6     7   1
     8     7     8  ar
     9     7     9  ar
    10     8    21  ar
    11     9    10  ar
    12    10    11  ar
    13    10    20  ar
    14    11    12  ar
    15    12    13   1
    16    12    18  ar
    17    13    14  am
    18    14    15   2
    19    14    16   1
    20    16    17   2
    21    18    19  ar
    22    19    20  ar
    23    20    21  ar
    24    21    22   1
    25    22    23   1
    26    23    24   2
    27    23    27   1
    28    24    25   1
    29    25    26   2
    30    26    27   1
    31     1    28   1
    32     2    29   1
    33     3    30   1
    34     4    31   1
    35     5    32   1
    36    11    33   1
    37    13    34   1
    38    16    35   1
    39    17    36   1
    40    17    37   1
    41    18    38   1
    42    19    39   1
    43    22    40   1
    44    24    41   1
    45    25    42   1
    46    27    43   1
@<TRIPOS>SUBSTRUCTURE
     1  G97      1

