@<TRIPOS>MOLECULE
3huc_ligand_077
    43    46
SMALL
GAST_HUCK
****
This file was generated by PARSER (from files_GN.cpp)

@<TRIPOS>ATOM
      1 CAH        18.9529    4.1204  -14.4605 C.ar        1 G97      -0.0465
      2 CAE        20.0772    3.8110  -15.2435 C.ar        1 G97      -0.0569
      3 CAD        20.8870    2.7126  -14.9177 C.ar        1 G97      -0.0580
      4 CAF        20.5673    1.9176  -13.8046 C.ar        1 G97      -0.0569
      5 CAI        19.4395    2.2256  -13.0192 C.ar        1 G97      -0.0465
      6 CAW        18.6096    3.3356  -13.3282 C.ar        1 G97       0.0141
      7 C2         17.4500    3.6377  -12.5614 C.ar        1 G97       0.0921
      8 N1         17.2309    3.0712  -11.3490 N.ar        1 G97      -0.2553
      9 N3         16.4996    4.4992  -13.0051 N.ar        1 G97      -0.3009
     10 C4         15.3445    4.7288  -12.3348 C.ar        1 G97       0.0255
     11 CAM        14.4041    5.6148  -12.8966 C.ar        1 G97      -0.0253
     12 CAU        13.1459    5.8369  -12.2907 C.ar        1 G97       0.0730
     13 NAQ        12.3362    6.7721  -12.8954 N.am        1 G97      -0.2295
     14 CAT        11.1593    7.2867  -12.5391 C.2         1 G97       0.2258
     15 OAB        10.5368    6.9290  -11.5491 O.2         1 G97      -0.3745
     16 CAC        10.6115    8.2934  -13.2645 C.2         1 G97       0.0150
     17 CAA        11.2790    9.4078  -13.5924 C.2         1 G97      -0.0781
     18 CAK        12.8250    5.0576  -11.1557 C.ar        1 G97      -0.0283
     19 CAL        13.7606    4.1516  -10.5964 C.ar        1 G97      -0.0465
     20 C5         15.0736    4.0408  -11.1162 C.ar        1 G97       0.0455
     21 C6         16.1301    3.2506  -10.5717 C.ar        1 G97       0.1561
     22 NAR        16.3598    2.6467   -9.3755 N.pl3       1 G97      -0.2206
     23 CAV        15.8151    2.5880   -8.1284 C.2         1 G97       0.1818
     24 CAJ        14.6856    3.0604   -7.4660 C.2         1 G97      -0.0280
     25 CAG        14.7696    2.5865   -6.1675 C.2         1 G97      -0.0243
     26 NAS        15.9193    1.9117   -6.0392 N.2         1 G97      -0.2412
     27 NAN        16.5218    1.9303   -7.1859 N.pl3       1 G97      -0.2006
     28 H1         18.3872    4.9318  -14.7212 H           1 G97       0.0660
     29 H2         20.3060    4.3900  -16.0551 H           1 G97       0.0628
     30 H3         21.7057    2.4895  -15.4889 H           1 G97       0.0649
     31 H4         21.1528    1.1126  -13.5716 H           1 G97       0.0628
     32 H5         19.2247    1.6174  -12.2235 H           1 G97       0.0660
     33 H6         14.6397    6.0998  -13.7675 H           1 G97       0.0447
     34 H7         12.7030    7.1505  -13.7124 H           1 G97       0.2290
     35 H8          9.6444    8.2351  -13.5055 H           1 G97       0.0698
     36 H9         10.8306   10.1294  -14.1066 H           1 G97       0.0686
     37 H10        12.2239    9.5445  -13.3174 H           1 G97       0.0686
     38 H11        11.9028    5.1014  -10.7218 H           1 G97       0.0570
     39 H12        13.4249    3.5130   -9.9080 H           1 G97       0.0666
     40 H13        17.2082    2.1751   -9.3875 H           1 G97       0.2279
     41 H14        13.9275    3.6462   -7.7960 H           1 G97       0.0216
     42 H15        14.0802    2.7473   -5.4325 H           1 G97       0.0607
     43 H16        17.3919    1.5266   -7.3428 H           1 G97       0.2521
@<TRIPOS>BOND
     1     1     2  ar
     2     1     6  ar
     3     2     3  ar
     4     3     4  ar
     5     4     5  ar
     6     5     6  ar
     7     6     7   1
     8     7     8  ar
     9     7     9  ar
    10     8    21  ar
    11     9    10  ar
    12    10    11  ar
    13    10    20  ar
    14    11    12  ar
    15    12    13   1
    16    12    18  ar
    17    13    14  am
    18    14    15   2
    19    14    16   1
    20    16    17   2
    21    18    19  ar
    22    19    20  ar
    23    20    21  ar
    24    21    22   1
    25    22    23   1
    26    23    24   2
    27    23    27   1
    28    24    25   1
    29    25    26   2
    30    26    27   1
    31     1    28   1
    32     2    29   1
    33     3    30   1
    34     4    31   1
    35     5    32   1
    36    11    33   1
    37    13    34   1
    38    16    35   1
    39    17    36   1
    40    17    37   1
    41    18    38   1
    42    19    39   1
    43    22    40   1
    44    24    41   1
    45    25    42   1
    46    27    43   1
@<TRIPOS>SUBSTRUCTURE
     1  G97      1

