@<TRIPOS>MOLECULE
3huc_ligand_002
    43    46
SMALL
GAST_HUCK
****
This file was generated by PARSER (from files_GN.cpp)

@<TRIPOS>ATOM
      1 CAH        21.7763   -1.1589  -16.7495 C.ar        1 G97      -0.0465
      2 CAE        21.8971   -0.5156  -17.9969 C.ar        1 G97      -0.0569
      3 CAD        22.1450    0.8677  -18.0572 C.ar        1 G97      -0.0580
      4 CAF        22.2749    1.6104  -16.8700 C.ar        1 G97      -0.0569
      5 CAI        22.1691    0.9656  -15.6210 C.ar        1 G97      -0.0465
      6 CAW        21.9358   -0.4258  -15.5537 C.ar        1 G97       0.0141
      7 C2         21.8684   -1.0758  -14.3125 C.ar        1 G97       0.0921
      8 N1         20.6927   -1.1488  -13.6439 N.ar        1 G97      -0.2553
      9 N3         22.9722   -1.6405  -13.7671 N.ar        1 G97      -0.3009
     10 C4         22.9379   -2.2444  -12.5503 C.ar        1 G97       0.0255
     11 CAM        24.1262   -2.7727  -12.0049 C.ar        1 G97      -0.0253
     12 CAU        24.1389   -3.3823  -10.7301 C.ar        1 G97       0.0730
     13 NAQ        25.3489   -3.8619  -10.2820 N.am        1 G97      -0.2295
     14 CAT        25.7706   -4.1254   -9.0458 C.2         1 G97       0.2258
     15 OAB        25.0713   -3.8786   -8.0717 O.2         1 G97      -0.3745
     16 CAC        27.0258   -4.6319   -8.8582 C.2         1 G97       0.0150
     17 CAA        27.5053   -5.1124   -7.6994 C.2         1 G97      -0.0781
     18 CAK        22.9119   -3.4977  -10.0356 C.ar        1 G97      -0.0283
     19 CAL        21.7194   -2.9759  -10.5738 C.ar        1 G97      -0.0465
     20 C5         21.7157   -2.3275  -11.8318 C.ar        1 G97       0.0455
     21 C6         20.5614   -1.7575  -12.4345 C.ar        1 G97       0.1561
     22 NAR        19.3494   -1.8152  -11.8259 N.pl3       1 G97      -0.2206
     23 CAV        18.1598   -1.3538  -12.2920 C.2         1 G97       0.1818
     24 CAJ        16.9651   -1.4863  -11.6015 C.2         1 G97      -0.0280
     25 CAG        15.9971   -0.9092  -12.4049 C.2         1 G97      -0.0243
     26 NAS        16.5933   -0.4537  -13.5187 N.2         1 G97      -0.2412
     27 NAN        17.8603   -0.7193  -13.4410 N.pl3       1 G97      -0.2006
     28 H1         21.5807   -2.1632  -16.7230 H           1 G97       0.0660
     29 H2         21.8040   -1.0542  -18.8594 H           1 G97       0.0628
     30 H3         22.2272    1.3332  -18.9649 H           1 G97       0.0649
     31 H4         22.4502    2.6168  -16.9129 H           1 G97       0.0628
     32 H5         22.2656    1.5200  -14.7678 H           1 G97       0.0660
     33 H6         24.9962   -2.6903  -12.5391 H           1 G97       0.0447
     34 H7         26.0132   -3.9939  -10.9776 H           1 G97       0.2290
     35 H8         27.6363   -4.6798   -9.6429 H           1 G97       0.0698
     36 H9         28.4240   -5.4847   -7.6538 H           1 G97       0.0686
     37 H10        26.9551   -5.1276   -6.8732 H           1 G97       0.0686
     38 H11        22.8599   -3.9829   -9.1391 H           1 G97       0.0570
     39 H12        20.8593   -3.0806  -10.0327 H           1 G97       0.0666
     40 H13        19.3176   -2.2527  -10.9632 H           1 G97       0.2279
     41 H14        16.8250   -1.9226  -10.6893 H           1 G97       0.0216
     42 H15        15.0011   -0.8402  -12.1910 H           1 G97       0.0607
     43 H16        18.5050   -0.4891  -14.1281 H           1 G97       0.2521
@<TRIPOS>BOND
     1     1     2  ar
     2     1     6  ar
     3     2     3  ar
     4     3     4  ar
     5     4     5  ar
     6     5     6  ar
     7     6     7   1
     8     7     8  ar
     9     7     9  ar
    10     8    21  ar
    11     9    10  ar
    12    10    11  ar
    13    10    20  ar
    14    11    12  ar
    15    12    13   1
    16    12    18  ar
    17    13    14  am
    18    14    15   2
    19    14    16   1
    20    16    17   2
    21    18    19  ar
    22    19    20  ar
    23    20    21  ar
    24    21    22   1
    25    22    23   1
    26    23    24   2
    27    23    27   1
    28    24    25   1
    29    25    26   2
    30    26    27   1
    31     1    28   1
    32     2    29   1
    33     3    30   1
    34     4    31   1
    35     5    32   1
    36    11    33   1
    37    13    34   1
    38    16    35   1
    39    17    36   1
    40    17    37   1
    41    18    38   1
    42    19    39   1
    43    22    40   1
    44    24    41   1
    45    25    42   1
    46    27    43   1
@<TRIPOS>SUBSTRUCTURE
     1  G97      1

