@<TRIPOS>MOLECULE
3huc_ligand_074
    43    46
SMALL
GAST_HUCK
****
This file was generated by PARSER (from files_GN.cpp)

@<TRIPOS>ATOM
      1 CAH        16.8970   -0.8705   -8.1547 C.ar        1 G97      -0.0465
      2 CAE        16.3118    0.3156   -7.6712 C.ar        1 G97      -0.0569
      3 CAD        16.6987    0.8356   -6.4203 C.ar        1 G97      -0.0580
      4 CAF        17.6803    0.1742   -5.6604 C.ar        1 G97      -0.0569
      5 CAI        18.2835   -0.9969   -6.1535 C.ar        1 G97      -0.0465
      6 CAW        17.8935   -1.5305   -7.4045 C.ar        1 G97       0.0141
      7 C2         18.4983   -2.7062   -7.8887 C.ar        1 G97       0.0921
      8 N1         17.7741   -3.8433   -8.0502 N.ar        1 G97      -0.2553
      9 N3         19.8379   -2.7451   -8.1167 N.ar        1 G97      -0.3009
     10 C4         20.4703   -3.8813   -8.5149 C.ar        1 G97       0.0255
     11 CAM        21.8499   -3.8487   -8.7856 C.ar        1 G97      -0.0253
     12 CAU        22.5410   -5.0157   -9.2012 C.ar        1 G97       0.0730
     13 NAQ        23.8952   -5.0806   -9.4429 N.am        1 G97      -0.2295
     14 CAT        24.7668   -4.1143   -9.7228 C.2         1 G97       0.2258
     15 OAB        24.4605   -2.9302   -9.8249 O.2         1 G97      -0.3745
     16 CAC        26.0678   -4.4041   -9.9484 C.2         1 G97       0.0150
     17 CAA        26.4809   -5.3269  -10.8300 C.2         1 G97      -0.0781
     18 CAK        21.7996   -6.2131   -9.3260 C.ar        1 G97      -0.0283
     19 CAL        20.4214   -6.2519   -9.0443 C.ar        1 G97      -0.0465
     20 C5         19.7384   -5.0877   -8.6409 C.ar        1 G97       0.0455
     21 C6         18.3430   -5.0315   -8.3858 C.ar        1 G97       0.1561
     22 NAR        17.5270   -6.1036   -8.3083 N.pl3       1 G97      -0.2206
     23 CAV        17.6703   -7.0453   -7.3282 C.2         1 G97       0.1818
     24 CAJ        18.4079   -7.0023   -6.1445 C.2         1 G97      -0.0280
     25 CAG        17.9597   -8.0754   -5.3855 C.2         1 G97      -0.0243
     26 NAS        17.0169   -8.7299   -6.0867 N.2         1 G97      -0.2412
     27 NAN        16.8658   -8.1175   -7.2262 N.pl3       1 G97      -0.2006
     28 H1         16.6141   -1.2276   -9.0718 H           1 G97       0.0660
     29 H2         15.6094    0.8061   -8.2313 H           1 G97       0.0628
     30 H3         16.2647    1.6861   -6.0654 H           1 G97       0.0649
     31 H4         17.9627    0.5516   -4.7501 H           1 G97       0.0628
     32 H5         18.9972   -1.4634   -5.5860 H           1 G97       0.0660
     33 H6         22.3387   -2.9599   -8.6727 H           1 G97       0.0447
     34 H7         24.2740   -5.9757   -9.4307 H           1 G97       0.2290
     35 H8         26.7623   -3.8488   -9.4922 H           1 G97       0.0698
     36 H9         27.4502   -5.4323  -11.0083 H           1 G97       0.0686
     37 H10        25.8373   -5.9044  -11.3169 H           1 G97       0.0686
     38 H11        22.2685   -7.0760   -9.6165 H           1 G97       0.0570
     39 H12        19.9179   -7.1351   -9.1717 H           1 G97       0.0666
     40 H13        16.6063   -5.9516   -8.5562 H           1 G97       0.2279
     41 H14        19.0731   -6.2889   -5.8420 H           1 G97       0.0216
     42 H15        18.2624   -8.3055   -4.4374 H           1 G97       0.0607
     43 H16        16.2113   -8.3760   -7.8978 H           1 G97       0.2521
@<TRIPOS>BOND
     1     1     2  ar
     2     1     6  ar
     3     2     3  ar
     4     3     4  ar
     5     4     5  ar
     6     5     6  ar
     7     6     7   1
     8     7     8  ar
     9     7     9  ar
    10     8    21  ar
    11     9    10  ar
    12    10    11  ar
    13    10    20  ar
    14    11    12  ar
    15    12    13   1
    16    12    18  ar
    17    13    14  am
    18    14    15   2
    19    14    16   1
    20    16    17   2
    21    18    19  ar
    22    19    20  ar
    23    20    21  ar
    24    21    22   1
    25    22    23   1
    26    23    24   2
    27    23    27   1
    28    24    25   1
    29    25    26   2
    30    26    27   1
    31     1    28   1
    32     2    29   1
    33     3    30   1
    34     4    31   1
    35     5    32   1
    36    11    33   1
    37    13    34   1
    38    16    35   1
    39    17    36   1
    40    17    37   1
    41    18    38   1
    42    19    39   1
    43    22    40   1
    44    24    41   1
    45    25    42   1
    46    27    43   1
@<TRIPOS>SUBSTRUCTURE
     1  G97      1

