@<TRIPOS>MOLECULE
3huc_ligand_010
    43    46
SMALL
GAST_HUCK
****
This file was generated by PARSER (from files_GN.cpp)

@<TRIPOS>ATOM
      1 CAH        25.8189   -3.6772  -11.4965 C.ar        1 G97      -0.0465
      2 CAE        27.0354   -4.0991  -10.9278 C.ar        1 G97      -0.0569
      3 CAD        27.0395   -5.0917   -9.9345 C.ar        1 G97      -0.0580
      4 CAF        25.8286   -5.6666   -9.5164 C.ar        1 G97      -0.0569
      5 CAI        24.6135   -5.2428  -10.0869 C.ar        1 G97      -0.0465
      6 CAW        24.5808   -4.2368  -11.0889 C.ar        1 G97       0.0141
      7 C2         23.3439   -3.7861  -11.6513 C.ar        1 G97       0.0921
      8 N1         22.1544   -4.3459  -11.2980 N.ar        1 G97      -0.2553
      9 N3         23.2967   -2.7553  -12.5390 N.ar        1 G97      -0.3009
     10 C4         22.1408   -2.2753  -13.0584 C.ar        1 G97       0.0255
     11 CAM        22.1775   -1.1800  -13.9516 C.ar        1 G97      -0.0253
     12 CAU        20.9860   -0.6307  -14.4846 C.ar        1 G97       0.0730
     13 NAQ        20.9482    0.4634  -15.3127 N.am        1 G97      -0.2295
     14 CAT        21.8613    0.9238  -16.1598 C.2         1 G97       0.2258
     15 OAB        22.8797    0.3032  -16.4328 O.2         1 G97      -0.3745
     16 CAC        21.6118    2.0411  -16.8824 C.2         1 G97       0.0150
     17 CAA        21.4014    3.2490  -16.3358 C.2         1 G97      -0.0781
     18 CAK        19.7582   -1.2003  -14.0867 C.ar        1 G97      -0.0283
     19 CAL        19.7128   -2.3066  -13.2155 C.ar        1 G97      -0.0465
     20 C5         20.9018   -2.8559  -12.6815 C.ar        1 G97       0.0455
     21 C6         20.9406   -3.9446  -11.7676 C.ar        1 G97       0.1561
     22 NAR        19.7985   -4.5606  -11.3683 N.pl3       1 G97      -0.2206
     23 CAV        19.6504   -5.5938  -10.4957 C.2         1 G97       0.1818
     24 CAJ        18.4248   -6.1613  -10.1835 C.2         1 G97      -0.0280
     25 CAG        18.6888   -7.1626   -9.2628 C.2         1 G97      -0.0243
     26 NAS        20.0128   -7.1850   -9.0446 N.2         1 G97      -0.2412
     27 NAN        20.5661   -6.2648   -9.7711 N.pl3       1 G97      -0.2006
     28 H1         25.8541   -2.9491  -12.2159 H           1 G97       0.0660
     29 H2         27.9170   -3.6805  -11.2343 H           1 G97       0.0628
     30 H3         27.9245   -5.3906   -9.5152 H           1 G97       0.0649
     31 H4         25.8280   -6.3906   -8.7930 H           1 G97       0.0628
     32 H5         23.7510   -5.6767   -9.7483 H           1 G97       0.0660
     33 H6         23.0791   -0.7642  -14.1766 H           1 G97       0.0447
     34 H7         20.1044    0.9533  -15.3071 H           1 G97       0.2290
     35 H8         21.6231    1.9717  -17.8774 H           1 G97       0.0698
     36 H9         21.2376    4.0326  -16.9166 H           1 G97       0.0686
     37 H10        21.4275    3.3817  -15.3501 H           1 G97       0.0686
     38 H11        18.8757   -0.8164  -14.4373 H           1 G97       0.0570
     39 H12        18.7986   -2.6908  -12.9719 H           1 G97       0.0666
     40 H13        18.9747   -4.2276  -11.7521 H           1 G97       0.2279
     41 H14        17.5067   -5.9020  -10.5520 H           1 G97       0.0216
     42 H15        18.0002   -7.7756   -8.8237 H           1 G97       0.0607
     43 H16        21.5184   -6.0861   -9.7840 H           1 G97       0.2521
@<TRIPOS>BOND
     1     1     2  ar
     2     1     6  ar
     3     2     3  ar
     4     3     4  ar
     5     4     5  ar
     6     5     6  ar
     7     6     7   1
     8     7     8  ar
     9     7     9  ar
    10     8    21  ar
    11     9    10  ar
    12    10    11  ar
    13    10    20  ar
    14    11    12  ar
    15    12    13   1
    16    12    18  ar
    17    13    14  am
    18    14    15   2
    19    14    16   1
    20    16    17   2
    21    18    19  ar
    22    19    20  ar
    23    20    21  ar
    24    21    22   1
    25    22    23   1
    26    23    24   2
    27    23    27   1
    28    24    25   1
    29    25    26   2
    30    26    27   1
    31     1    28   1
    32     2    29   1
    33     3    30   1
    34     4    31   1
    35     5    32   1
    36    11    33   1
    37    13    34   1
    38    16    35   1
    39    17    36   1
    40    17    37   1
    41    18    38   1
    42    19    39   1
    43    22    40   1
    44    24    41   1
    45    25    42   1
    46    27    43   1
@<TRIPOS>SUBSTRUCTURE
     1  G97      1

