@<TRIPOS>MOLECULE
3huc_ligand_011
    43    46
SMALL
GAST_HUCK
****
This file was generated by PARSER (from files_GN.cpp)

@<TRIPOS>ATOM
      1 CAH        22.2004    6.7712  -20.5561 C.ar        1 G97      -0.0465
      2 CAE        21.9878    8.1243  -20.8808 C.ar        1 G97      -0.0569
      3 CAD        20.8160    8.7750  -20.4596 C.ar        1 G97      -0.0580
      4 CAF        19.8612    8.0740  -19.7019 C.ar        1 G97      -0.0569
      5 CAI        20.0786    6.7257  -19.3585 C.ar        1 G97      -0.0465
      6 CAW        21.2475    6.0568  -19.7901 C.ar        1 G97       0.0141
      7 C2         21.4533    4.6924  -19.4994 C.ar        1 G97       0.0921
      8 N1         21.7695    3.8290  -20.4929 N.ar        1 G97      -0.2553
      9 N3         21.3404    4.2045  -18.2413 N.ar        1 G97      -0.3009
     10 C4         21.5479    2.8966  -17.9498 C.ar        1 G97       0.0255
     11 CAM        21.4571    2.4632  -16.6115 C.ar        1 G97      -0.0253
     12 CAU        21.6706    1.1134  -16.2656 C.ar        1 G97       0.0730
     13 NAQ        21.5439    0.8048  -14.9352 N.am        1 G97      -0.2295
     14 CAT        21.9452   -0.2579  -14.2353 C.2         1 G97       0.2258
     15 OAB        22.6493   -1.1367  -14.7215 O.2         1 G97      -0.3745
     16 CAC        21.6726   -0.2912  -12.9015 C.2         1 G97       0.0150
     17 CAA        21.5265   -1.4053  -12.1696 C.2         1 G97      -0.0781
     18 CAK        21.9473    0.1935  -17.3033 C.ar        1 G97      -0.0283
     19 CAL        22.0478    0.6172  -18.6444 C.ar        1 G97      -0.0465
     20 C5         21.8615    1.9768  -18.9904 C.ar        1 G97       0.0455
     21 C6         21.9664    2.4970  -20.3147 C.ar        1 G97       0.1561
     22 NAR        22.2508    1.7142  -21.3843 N.pl3       1 G97      -0.2206
     23 CAV        22.3633    2.0655  -22.7024 C.2         1 G97       0.1818
     24 CAJ        22.2925    3.2929  -23.3589 C.2         1 G97      -0.0280
     25 CAG        22.4588    3.0226  -24.7076 C.2         1 G97      -0.0243
     26 NAS        22.6179    1.6995  -24.8487 N.2         1 G97      -0.2412
     27 NAN        22.5705    1.1534  -23.6708 N.pl3       1 G97      -0.2006
     28 H1         23.0591    6.3190  -20.8758 H           1 G97       0.0660
     29 H2         22.6862    8.6365  -21.4258 H           1 G97       0.0628
     30 H3         20.6587    9.7569  -20.6992 H           1 G97       0.0649
     31 H4         19.0028    8.5429  -19.4033 H           1 G97       0.0628
     32 H5         19.3602    6.2284  -18.8261 H           1 G97       0.0660
     33 H6         21.2399    3.1464  -15.8797 H           1 G97       0.0447
     34 H7         21.1127    1.4944  -14.4044 H           1 G97       0.2290
     35 H8         21.5737    0.5759  -12.4173 H           1 G97       0.0698
     36 H9         21.3387   -1.3457  -11.1939 H           1 G97       0.0686
     37 H10        21.5716   -2.3136  -12.5788 H           1 G97       0.0686
     38 H11        22.0494   -0.8060  -17.1149 H           1 G97       0.0570
     39 H12        22.2441   -0.0789  -19.3680 H           1 G97       0.0666
     40 H13        22.3707    0.7716  -21.2017 H           1 G97       0.2279
     41 H14        22.1453    4.2281  -22.9722 H           1 G97       0.0216
     42 H15        22.4553    3.7098  -25.4652 H           1 G97       0.0607
     43 H16        22.6619    0.2008  -23.5076 H           1 G97       0.2521
@<TRIPOS>BOND
     1     1     2  ar
     2     1     6  ar
     3     2     3  ar
     4     3     4  ar
     5     4     5  ar
     6     5     6  ar
     7     6     7   1
     8     7     8  ar
     9     7     9  ar
    10     8    21  ar
    11     9    10  ar
    12    10    11  ar
    13    10    20  ar
    14    11    12  ar
    15    12    13   1
    16    12    18  ar
    17    13    14  am
    18    14    15   2
    19    14    16   1
    20    16    17   2
    21    18    19  ar
    22    19    20  ar
    23    20    21  ar
    24    21    22   1
    25    22    23   1
    26    23    24   2
    27    23    27   1
    28    24    25   1
    29    25    26   2
    30    26    27   1
    31     1    28   1
    32     2    29   1
    33     3    30   1
    34     4    31   1
    35     5    32   1
    36    11    33   1
    37    13    34   1
    38    16    35   1
    39    17    36   1
    40    17    37   1
    41    18    38   1
    42    19    39   1
    43    22    40   1
    44    24    41   1
    45    25    42   1
    46    27    43   1
@<TRIPOS>SUBSTRUCTURE
     1  G97      1

