@<TRIPOS>MOLECULE
3huc_ligand_093
    43    46
SMALL
GAST_HUCK
****
This file was generated by PARSER (from files_GN.cpp)

@<TRIPOS>ATOM
      1 CAH        21.3449   -5.1201  -10.5507 C.ar        1 G97      -0.0465
      2 CAE        21.5109   -6.0893  -11.5568 C.ar        1 G97      -0.0569
      3 CAD        20.6764   -7.2197  -11.5869 C.ar        1 G97      -0.0580
      4 CAF        19.6823   -7.3825  -10.6059 C.ar        1 G97      -0.0569
      5 CAI        19.5181   -6.4135   -9.5986 C.ar        1 G97      -0.0465
      6 CAW        20.3425   -5.2585   -9.5509 C.ar        1 G97       0.0141
      7 C2         20.1541   -4.2610   -8.5466 C.ar        1 G97       0.0921
      8 N1         20.9984   -3.2026   -8.4222 N.ar        1 G97      -0.2553
      9 N3         19.1176   -4.3196   -7.6711 N.ar        1 G97      -0.3009
     10 C4         18.8798   -3.3647   -6.7387 C.ar        1 G97       0.0255
     11 CAM        17.7452   -3.4937   -5.9129 C.ar        1 G97      -0.0253
     12 CAU        17.4042   -2.4781   -4.9914 C.ar        1 G97       0.0730
     13 NAQ        16.3409   -2.5268   -4.1279 N.am        1 G97      -0.2295
     14 CAT        15.1762   -3.1664   -4.2314 C.2         1 G97       0.2258
     15 OAB        14.8723   -3.7886   -5.2422 O.2         1 G97      -0.3745
     16 CAC        14.2886   -3.0640   -3.2045 C.2         1 G97       0.0150
     17 CAA        12.9687   -3.2854   -3.2959 C.2         1 G97      -0.0781
     18 CAK        18.2234   -1.3293   -4.9338 C.ar        1 G97      -0.0283
     19 CAL        19.3510   -1.1971   -5.7659 C.ar        1 G97      -0.0465
     20 C5         19.7397   -2.2356   -6.6417 C.ar        1 G97       0.0455
     21 C6         20.8777   -2.2126   -7.4990 C.ar        1 G97       0.1561
     22 NAR        21.9165   -1.3395   -7.5561 N.pl3       1 G97      -0.2206
     23 CAV        22.4076   -0.4884   -6.6234 C.2         1 G97       0.1818
     24 CAJ        22.4313   -0.5808   -5.2362 C.2         1 G97      -0.0280
     25 CAG        23.1651    0.5086   -4.7935 C.2         1 G97      -0.0243
     26 NAS        23.5913    1.1864   -5.8727 N.2         1 G97      -0.2412
     27 NAN        23.1528    0.5859   -6.9359 N.pl3       1 G97      -0.2006
     28 H1         21.9645   -4.3059  -10.5625 H           1 G97       0.0660
     29 H2         22.2343   -5.9687  -12.2717 H           1 G97       0.0628
     30 H3         20.7892   -7.9214  -12.3193 H           1 G97       0.0649
     31 H4         19.0721   -8.2017  -10.6305 H           1 G97       0.0628
     32 H5         18.7835   -6.5635   -8.8997 H           1 G97       0.0660
     33 H6         17.1842   -4.3449   -5.9751 H           1 G97       0.0447
     34 H7         16.4328   -1.9672   -3.3415 H           1 G97       0.2290
     35 H8         14.6378   -2.7979   -2.3087 H           1 G97       0.0698
     36 H9         12.3935   -3.1889   -2.4929 H           1 G97       0.0686
     37 H10        12.5375   -3.5433   -4.1540 H           1 G97       0.0686
     38 H11        17.9926   -0.5649   -4.2937 H           1 G97       0.0570
     39 H12        19.8584   -0.3138   -5.7400 H           1 G97       0.0666
     40 H13        22.4642   -1.4091   -8.3559 H           1 G97       0.2279
     41 H14        22.0182   -1.3112   -4.6552 H           1 G97       0.0216
     42 H15        23.3787    0.7344   -3.8209 H           1 G97       0.0607
     43 H16        23.3437    0.8745   -7.8418 H           1 G97       0.2521
@<TRIPOS>BOND
     1     1     2  ar
     2     1     6  ar
     3     2     3  ar
     4     3     4  ar
     5     4     5  ar
     6     5     6  ar
     7     6     7   1
     8     7     8  ar
     9     7     9  ar
    10     8    21  ar
    11     9    10  ar
    12    10    11  ar
    13    10    20  ar
    14    11    12  ar
    15    12    13   1
    16    12    18  ar
    17    13    14  am
    18    14    15   2
    19    14    16   1
    20    16    17   2
    21    18    19  ar
    22    19    20  ar
    23    20    21  ar
    24    21    22   1
    25    22    23   1
    26    23    24   2
    27    23    27   1
    28    24    25   1
    29    25    26   2
    30    26    27   1
    31     1    28   1
    32     2    29   1
    33     3    30   1
    34     4    31   1
    35     5    32   1
    36    11    33   1
    37    13    34   1
    38    16    35   1
    39    17    36   1
    40    17    37   1
    41    18    38   1
    42    19    39   1
    43    22    40   1
    44    24    41   1
    45    25    42   1
    46    27    43   1
@<TRIPOS>SUBSTRUCTURE
     1  G97      1

