@<TRIPOS>MOLECULE
3huc_ligand_038
    43    46
SMALL
GAST_HUCK
****
This file was generated by PARSER (from files_GN.cpp)

@<TRIPOS>ATOM
      1 CAH        18.5073   -4.5977  -13.5235 C.ar        1 G97      -0.0465
      2 CAE        17.9209   -5.1792  -12.3824 C.ar        1 G97      -0.0569
      3 CAD        18.4765   -4.9513  -11.1105 C.ar        1 G97      -0.0580
      4 CAF        19.6171   -4.1388  -10.9802 C.ar        1 G97      -0.0569
      5 CAI        20.1945   -3.5450  -12.1200 C.ar        1 G97      -0.0465
      6 CAW        19.6490   -3.7673  -13.4073 C.ar        1 G97       0.0141
      7 C2         20.2308   -3.1735  -14.5528 C.ar        1 G97       0.0921
      8 N1         20.4441   -1.8338  -14.6144 N.ar        1 G97      -0.2553
      9 N3         20.5898   -3.9275  -15.6221 N.ar        1 G97      -0.3009
     10 C4         21.1535   -3.3894  -16.7354 C.ar        1 G97       0.0255
     11 CAM        21.5299   -4.2333  -17.7996 C.ar        1 G97      -0.0253
     12 CAU        22.1305   -3.7206  -18.9722 C.ar        1 G97       0.0730
     13 NAQ        22.4457   -4.6386  -19.9455 N.am        1 G97      -0.2295
     14 CAT        23.2225   -4.5524  -21.0203 C.2         1 G97       0.2258
     15 OAB        23.8495   -3.5449  -21.3220 O.2         1 G97      -0.3745
     16 CAC        23.3307   -5.6431  -21.8152 C.2         1 G97       0.0150
     17 CAA        24.4919   -6.2361  -22.1219 C.2         1 G97      -0.0781
     18 CAK        22.3165   -2.3193  -19.0605 C.ar        1 G97      -0.0283
     19 CAL        21.9459   -1.4670  -18.0013 C.ar        1 G97      -0.0465
     20 C5         21.3705   -1.9877  -16.8158 C.ar        1 G97       0.0455
     21 C6         20.9862   -1.2031  -15.6950 C.ar        1 G97       0.1561
     22 NAR        21.1474    0.1451  -15.7000 N.pl3       1 G97      -0.2206
     23 CAV        20.8114    1.0340  -14.7285 C.2         1 G97       0.1818
     24 CAJ        21.0329    2.3997  -14.8215 C.2         1 G97      -0.0280
     25 CAG        20.5541    2.9429  -13.6406 C.2         1 G97      -0.0243
     26 NAS        20.0694    1.9432  -12.8871 N.2         1 G97      -0.2412
     27 NAN        20.2248    0.8299  -13.5346 N.pl3       1 G97      -0.2006
     28 H1         18.0801   -4.7688  -14.4375 H           1 G97       0.0660
     29 H2         17.0864   -5.7645  -12.4751 H           1 G97       0.0628
     30 H3         18.0530   -5.3766  -10.2822 H           1 G97       0.0649
     31 H4         20.0273   -3.9823  -10.0556 H           1 G97       0.0628
     32 H5         21.0303   -2.9662  -12.0023 H           1 G97       0.0660
     33 H6         21.3769   -5.2418  -17.7070 H           1 G97       0.0447
     34 H7         22.0570   -5.5173  -19.8046 H           1 G97       0.2290
     35 H8         22.4931   -6.0386  -22.1819 H           1 G97       0.0698
     36 H9         24.5011   -7.0394  -22.7069 H           1 G97       0.0686
     37 H10        25.3587   -5.9033  -21.7669 H           1 G97       0.0686
     38 H11        22.7013   -1.8943  -19.9030 H           1 G97       0.0570
     39 H12        22.0985   -0.4632  -18.1101 H           1 G97       0.0666
     40 H13        21.5423    0.5294  -16.4958 H           1 G97       0.2279
     41 H14        21.4643    2.9070  -15.5970 H           1 G97       0.0216
     42 H15        20.5675    3.9310  -13.3837 H           1 G97       0.0607
     43 H16        19.9505   -0.0365  -13.1969 H           1 G97       0.2521
@<TRIPOS>BOND
     1     1     2  ar
     2     1     6  ar
     3     2     3  ar
     4     3     4  ar
     5     4     5  ar
     6     5     6  ar
     7     6     7   1
     8     7     8  ar
     9     7     9  ar
    10     8    21  ar
    11     9    10  ar
    12    10    11  ar
    13    10    20  ar
    14    11    12  ar
    15    12    13   1
    16    12    18  ar
    17    13    14  am
    18    14    15   2
    19    14    16   1
    20    16    17   2
    21    18    19  ar
    22    19    20  ar
    23    20    21  ar
    24    21    22   1
    25    22    23   1
    26    23    24   2
    27    23    27   1
    28    24    25   1
    29    25    26   2
    30    26    27   1
    31     1    28   1
    32     2    29   1
    33     3    30   1
    34     4    31   1
    35     5    32   1
    36    11    33   1
    37    13    34   1
    38    16    35   1
    39    17    36   1
    40    17    37   1
    41    18    38   1
    42    19    39   1
    43    22    40   1
    44    24    41   1
    45    25    42   1
    46    27    43   1
@<TRIPOS>SUBSTRUCTURE
     1  G97      1

