@<TRIPOS>MOLECULE
3huc_ligand_088
    43    46
SMALL
GAST_HUCK
****
This file was generated by PARSER (from files_GN.cpp)

@<TRIPOS>ATOM
      1 CAH        17.4011   11.9564  -23.6906 C.ar        1 G97      -0.0465
      2 CAE        16.4067   12.7251  -24.3277 C.ar        1 G97      -0.0569
      3 CAD        15.8313   12.2878  -25.5337 C.ar        1 G97      -0.0580
      4 CAF        16.2434   11.0638  -26.0887 C.ar        1 G97      -0.0569
      5 CAI        17.2317   10.2887  -25.4561 C.ar        1 G97      -0.0465
      6 CAW        17.8355   10.7230  -24.2444 C.ar        1 G97       0.0141
      7 C2         18.8787    9.9629  -23.6304 C.ar        1 G97       0.0921
      8 N1         19.5770   10.4249  -22.5605 N.ar        1 G97      -0.2553
      9 N3         19.2532    8.7562  -24.1214 N.ar        1 G97      -0.3009
     10 C4         20.2978    8.0482  -23.6289 C.ar        1 G97       0.0255
     11 CAM        20.6208    6.8265  -24.2424 C.ar        1 G97      -0.0253
     12 CAU        21.7555    6.0953  -23.8238 C.ar        1 G97       0.0730
     13 NAQ        21.9800    4.8990  -24.4450 N.am        1 G97      -0.2295
     14 CAT        22.6110    3.8199  -23.9906 C.2         1 G97       0.2258
     15 OAB        23.0606    3.7705  -22.8489 O.2         1 G97      -0.3745
     16 CAC        22.7243    2.7404  -24.8101 C.2         1 G97       0.0150
     17 CAA        22.8970    1.4775  -24.3984 C.2         1 G97      -0.0781
     18 CAK        22.6217    6.6868  -22.8681 C.ar        1 G97      -0.0283
     19 CAL        22.3003    7.9233  -22.2766 C.ar        1 G97      -0.0465
     20 C5         21.0847    8.5873  -22.5692 C.ar        1 G97       0.0455
     21 C6         20.6311    9.7925  -21.9724 C.ar        1 G97       0.1561
     22 NAR        21.0465   10.4724  -20.8770 N.pl3       1 G97      -0.2206
     23 CAV        21.8441   10.1897  -19.8154 C.2         1 G97       0.1818
     24 CAJ        22.3455    9.0225  -19.2221 C.2         1 G97      -0.0280
     25 CAG        23.0421    9.4260  -18.0951 C.2         1 G97      -0.0243
     26 NAS        22.9102   10.7675  -17.9728 N.2         1 G97      -0.2412
     27 NAN        22.2119   11.1875  -18.9816 N.pl3       1 G97      -0.2006
     28 H1         17.8020   12.3098  -22.8161 H           1 G97       0.0660
     29 H2         16.1074   13.6086  -23.9160 H           1 G97       0.0628
     30 H3         15.1112   12.8481  -25.9962 H           1 G97       0.0649
     31 H4         15.8298   10.7405  -26.9651 H           1 G97       0.0628
     32 H5         17.5068    9.4067  -25.8971 H           1 G97       0.0660
     33 H6         20.0267    6.4611  -24.9951 H           1 G97       0.0447
     34 H7         21.5550    4.7931  -25.3182 H           1 G97       0.2290
     35 H8         22.6501    2.8921  -25.7937 H           1 G97       0.0698
     36 H9         22.9597    0.7391  -25.0603 H           1 G97       0.0686
     37 H10        22.9671    1.2479  -23.4337 H           1 G97       0.0686
     38 H11        23.5123    6.2396  -22.6327 H           1 G97       0.0570
     39 H12        22.9893    8.3590  -21.6718 H           1 G97       0.0666
     40 H13        20.6376   11.3500  -20.8058 H           1 G97       0.2279
     41 H14        22.1804    8.0531  -19.5132 H           1 G97       0.0216
     42 H15        23.5279    8.8048  -17.4390 H           1 G97       0.0607
     43 H16        21.9646   12.1193  -19.1085 H           1 G97       0.2521
@<TRIPOS>BOND
     1     1     2  ar
     2     1     6  ar
     3     2     3  ar
     4     3     4  ar
     5     4     5  ar
     6     5     6  ar
     7     6     7   1
     8     7     8  ar
     9     7     9  ar
    10     8    21  ar
    11     9    10  ar
    12    10    11  ar
    13    10    20  ar
    14    11    12  ar
    15    12    13   1
    16    12    18  ar
    17    13    14  am
    18    14    15   2
    19    14    16   1
    20    16    17   2
    21    18    19  ar
    22    19    20  ar
    23    20    21  ar
    24    21    22   1
    25    22    23   1
    26    23    24   2
    27    23    27   1
    28    24    25   1
    29    25    26   2
    30    26    27   1
    31     1    28   1
    32     2    29   1
    33     3    30   1
    34     4    31   1
    35     5    32   1
    36    11    33   1
    37    13    34   1
    38    16    35   1
    39    17    36   1
    40    17    37   1
    41    18    38   1
    42    19    39   1
    43    22    40   1
    44    24    41   1
    45    25    42   1
    46    27    43   1
@<TRIPOS>SUBSTRUCTURE
     1  G97      1

