@<TRIPOS>MOLECULE
3huc_ligand_009
    43    46
SMALL
GAST_HUCK
****
This file was generated by PARSER (from files_GN.cpp)

@<TRIPOS>ATOM
      1 CAH        23.0281   -0.4908  -21.3255 C.ar        1 G97      -0.0465
      2 CAE        23.6526   -1.0451  -22.4596 C.ar        1 G97      -0.0569
      3 CAD        24.7921   -1.8564  -22.3110 C.ar        1 G97      -0.0580
      4 CAF        25.2834   -2.1484  -21.0269 C.ar        1 G97      -0.0569
      5 CAI        24.6408   -1.6143  -19.8920 C.ar        1 G97      -0.0465
      6 CAW        23.5133   -0.7684  -20.0266 C.ar        1 G97       0.0141
      7 C2         22.8818   -0.2062  -18.8925 C.ar        1 G97       0.0921
      8 N1         22.3437   -0.9848  -17.9236 N.ar        1 G97      -0.2553
      9 N3         22.8133    1.1379  -18.7302 N.ar        1 G97      -0.3009
     10 C4         22.2056    1.7129  -17.6642 C.ar        1 G97       0.0255
     11 CAM        22.1846    3.1185  -17.5812 C.ar        1 G97      -0.0253
     12 CAU        21.5261    3.7665  -16.5172 C.ar        1 G97       0.0730
     13 NAQ        21.5480    5.1354  -16.5006 N.am        1 G97      -0.2295
     14 CAT        21.5156    5.9609  -15.4616 C.2         1 G97       0.2258
     15 OAB        21.4910    5.5591  -14.3036 O.2         1 G97      -0.3745
     16 CAC        21.5625    7.2922  -15.6996 C.2         1 G97       0.0150
     17 CAA        22.2171    8.1717  -14.9228 C.2         1 G97      -0.0781
     18 CAK        20.8129    2.9730  -15.5892 C.ar        1 G97      -0.0283
     19 CAL        20.8222    1.5698  -15.6793 C.ar        1 G97      -0.0465
     20 C5         21.5750    0.9056  -16.6764 C.ar        1 G97       0.0455
     21 C6         21.6996   -0.5065  -16.8253 C.ar        1 G97       0.1561
     22 NAR        21.2557   -1.5197  -16.0389 N.pl3       1 G97      -0.2206
     23 CAV        20.8174   -1.5389  -14.7550 C.2         1 G97       0.1818
     24 CAJ        19.9073   -2.4689  -14.2694 C.2         1 G97      -0.0280
     25 CAG        19.7887   -2.2067  -12.9136 C.2         1 G97      -0.0243
     26 NAS        20.6214   -1.1949  -12.6078 N.2         1 G97      -0.2412
     27 NAN        21.2329   -0.8195  -13.6913 N.pl3       1 G97      -0.2006
     28 H1         22.2011    0.0984  -21.4594 H           1 G97       0.0660
     29 H2         23.2734   -0.8566  -23.3889 H           1 G97       0.0628
     30 H3         25.2563   -2.2408  -23.1392 H           1 G97       0.0649
     31 H4         26.1082   -2.7492  -20.9190 H           1 G97       0.0628
     32 H5         25.0254   -1.8318  -18.9698 H           1 G97       0.0660
     33 H6         22.6615    3.6744  -18.2972 H           1 G97       0.0447
     34 H7         21.6758    5.5599  -17.3644 H           1 G97       0.2290
     35 H8         21.1251    7.6366  -16.5256 H           1 G97       0.0698
     36 H9         22.2304    9.1334  -15.1644 H           1 G97       0.0686
     37 H10        22.7030    7.8806  -14.1024 H           1 G97       0.0686
     38 H11        20.2375    3.4123  -14.8690 H           1 G97       0.0570
     39 H12        20.2264    1.0529  -15.0377 H           1 G97       0.0666
     40 H13        21.3021   -2.4007  -16.4508 H           1 G97       0.2279
     41 H14        19.4268   -3.1984  -14.8007 H           1 G97       0.0216
     42 H15        19.1872   -2.7114  -12.2578 H           1 G97       0.0607
     43 H16        21.9014   -0.1154  -13.7260 H           1 G97       0.2521
@<TRIPOS>BOND
     1     1     2  ar
     2     1     6  ar
     3     2     3  ar
     4     3     4  ar
     5     4     5  ar
     6     5     6  ar
     7     6     7   1
     8     7     8  ar
     9     7     9  ar
    10     8    21  ar
    11     9    10  ar
    12    10    11  ar
    13    10    20  ar
    14    11    12  ar
    15    12    13   1
    16    12    18  ar
    17    13    14  am
    18    14    15   2
    19    14    16   1
    20    16    17   2
    21    18    19  ar
    22    19    20  ar
    23    20    21  ar
    24    21    22   1
    25    22    23   1
    26    23    24   2
    27    23    27   1
    28    24    25   1
    29    25    26   2
    30    26    27   1
    31     1    28   1
    32     2    29   1
    33     3    30   1
    34     4    31   1
    35     5    32   1
    36    11    33   1
    37    13    34   1
    38    16    35   1
    39    17    36   1
    40    17    37   1
    41    18    38   1
    42    19    39   1
    43    22    40   1
    44    24    41   1
    45    25    42   1
    46    27    43   1
@<TRIPOS>SUBSTRUCTURE
     1  G97      1

