@<TRIPOS>MOLECULE
3huc_ligand_041
    43    46
SMALL
GAST_HUCK
****
This file was generated by PARSER (from files_GN.cpp)

@<TRIPOS>ATOM
      1 CAH        26.3665   -1.4161   -8.8595 C.ar        1 G97      -0.0465
      2 CAE        27.6724   -0.9119   -8.7209 C.ar        1 G97      -0.0569
      3 CAD        28.0850   -0.3292   -7.5078 C.ar        1 G97      -0.0580
      4 CAF        27.1766   -0.2300   -6.4384 C.ar        1 G97      -0.0569
      5 CAI        25.8597   -0.7091   -6.5858 C.ar        1 G97      -0.0465
      6 CAW        25.4386   -1.3136   -7.7965 C.ar        1 G97       0.0141
      7 C2         24.1239   -1.8148   -7.9443 C.ar        1 G97       0.0921
      8 N1         23.0676   -1.1803   -7.3761 N.ar        1 G97      -0.2553
      9 N3         23.8822   -2.9515   -8.6457 N.ar        1 G97      -0.3009
     10 C4         22.6367   -3.4730   -8.7846 C.ar        1 G97       0.0255
     11 CAM        22.4617   -4.6800   -9.4905 C.ar        1 G97      -0.0253
     12 CAU        21.1823   -5.2583   -9.6506 C.ar        1 G97       0.0730
     13 NAQ        21.1061   -6.4227  -10.3788 N.am        1 G97      -0.2295
     14 CAT        20.1483   -7.3444  -10.4205 C.2         1 G97       0.2258
     15 OAB        19.1638   -7.3327   -9.6933 O.2         1 G97      -0.3745
     16 CAC        20.3174   -8.4170  -11.2179 C.2         1 G97       0.0150
     17 CAA        19.5200   -8.6835  -12.2611 C.2         1 G97      -0.0781
     18 CAK        20.0734   -4.5672   -9.1060 C.ar        1 G97      -0.0283
     19 CAL        20.2416   -3.3693   -8.3893 C.ar        1 G97      -0.0465
     20 C5         21.5251   -2.8075   -8.2023 C.ar        1 G97       0.0455
     21 C6         21.7805   -1.6110   -7.4827 C.ar        1 G97       0.1561
     22 NAR        20.7668   -0.8968   -6.9291 N.pl3       1 G97      -0.2206
     23 CAV        20.8394    0.2828   -6.2591 C.2         1 G97       0.1818
     24 CAJ        19.7366    0.9427   -5.7383 C.2         1 G97      -0.0280
     25 CAG        20.2284    2.0929   -5.1440 C.2         1 G97      -0.0243
     26 NAS        21.5605    2.1116   -5.3094 N.2         1 G97      -0.2412
     27 NAN        21.9072    1.0472   -5.9647 N.pl3       1 G97      -0.2006
     28 H1         26.0864   -1.8255   -9.7532 H           1 G97       0.0660
     29 H2         28.3092   -0.9398   -9.5169 H           1 G97       0.0628
     30 H3         29.0341    0.0382   -7.4115 H           1 G97       0.0649
     31 H4         27.4760    0.1841   -5.5529 H           1 G97       0.0628
     32 H5         25.2206   -0.6495   -5.7909 H           1 G97       0.0660
     33 H6         23.2825   -5.1477   -9.8849 H           1 G97       0.0447
     34 H7         21.8807   -6.6168  -10.9309 H           1 G97       0.2290
     35 H8         21.0801   -9.0253  -11.0285 H           1 G97       0.0698
     36 H9         19.6749   -9.4942  -12.8138 H           1 G97       0.0686
     37 H10        18.7734   -8.0775  -12.5115 H           1 G97       0.0686
     38 H11        19.1226   -4.9105   -9.2454 H           1 G97       0.0570
     39 H12        19.4097   -2.9109   -8.0138 H           1 G97       0.0666
     40 H13        19.8770   -1.2574   -7.0413 H           1 G97       0.2279
     41 H14        18.7593    0.6468   -5.7815 H           1 G97       0.0216
     42 H15        19.6769    2.8064   -4.6653 H           1 G97       0.0607
     43 H16        22.8206    0.8356   -6.2102 H           1 G97       0.2521
@<TRIPOS>BOND
     1     1     2  ar
     2     1     6  ar
     3     2     3  ar
     4     3     4  ar
     5     4     5  ar
     6     5     6  ar
     7     6     7   1
     8     7     8  ar
     9     7     9  ar
    10     8    21  ar
    11     9    10  ar
    12    10    11  ar
    13    10    20  ar
    14    11    12  ar
    15    12    13   1
    16    12    18  ar
    17    13    14  am
    18    14    15   2
    19    14    16   1
    20    16    17   2
    21    18    19  ar
    22    19    20  ar
    23    20    21  ar
    24    21    22   1
    25    22    23   1
    26    23    24   2
    27    23    27   1
    28    24    25   1
    29    25    26   2
    30    26    27   1
    31     1    28   1
    32     2    29   1
    33     3    30   1
    34     4    31   1
    35     5    32   1
    36    11    33   1
    37    13    34   1
    38    16    35   1
    39    17    36   1
    40    17    37   1
    41    18    38   1
    42    19    39   1
    43    22    40   1
    44    24    41   1
    45    25    42   1
    46    27    43   1
@<TRIPOS>SUBSTRUCTURE
     1  G97      1

