@<TRIPOS>MOLECULE
3huc_ligand_057
    43    46
SMALL
GAST_HUCK
****
This file was generated by PARSER (from files_GN.cpp)

@<TRIPOS>ATOM
      1 CAH        19.3387    5.8925  -16.5392 C.ar        1 G97      -0.0465
      2 CAE        19.3384    6.5641  -17.7774 C.ar        1 G97      -0.0569
      3 CAD        20.2540    6.1966  -18.7785 C.ar        1 G97      -0.0580
      4 CAF        21.1664    5.1552  -18.5414 C.ar        1 G97      -0.0569
      5 CAI        21.1564    4.4751  -17.3091 C.ar        1 G97      -0.0465
      6 CAW        20.2471    4.8339  -16.2801 C.ar        1 G97       0.0141
      7 C2         20.2686    4.1698  -15.0200 C.ar        1 G97       0.0921
      8 N1         20.0501    4.8413  -13.8613 N.ar        1 G97      -0.2553
      9 N3         20.5370    2.8432  -14.9209 N.ar        1 G97      -0.3009
     10 C4         20.6337    2.1971  -13.7326 C.ar        1 G97       0.0255
     11 CAM        21.0122    0.8404  -13.7324 C.ar        1 G97      -0.0253
     12 CAU        21.3047    0.1731  -12.5216 C.ar        1 G97       0.0730
     13 NAQ        21.7612   -1.1163  -12.4305 N.am        1 G97      -0.2295
     14 CAT        22.5297   -1.7966  -13.2772 C.2         1 G97       0.2258
     15 OAB        22.9408   -1.3251  -14.3264 O.2         1 G97      -0.3745
     16 CAC        22.9428   -3.0480  -12.9752 C.2         1 G97       0.0150
     17 CAA        23.7815   -3.3340  -11.9657 C.2         1 G97      -0.0781
     18 CAK        21.1646    0.8900  -11.3165 C.ar        1 G97      -0.0283
     19 CAL        20.7652    2.2383  -11.3143 C.ar        1 G97      -0.0465
     20 C5         20.4562    2.9131  -12.5168 C.ar        1 G97       0.0455
     21 C6         20.0910    4.2853  -12.6227 C.ar        1 G97       0.1561
     22 NAR        19.7730    5.1850  -11.6593 N.pl3       1 G97      -0.2206
     23 CAV        19.3332    4.9993  -10.3915 C.2         1 G97       0.1818
     24 CAJ        19.3975    5.9651   -9.3993 C.2         1 G97      -0.0280
     25 CAG        18.7664    5.4158   -8.2936 C.2         1 G97      -0.0243
     26 NAS        18.3227    4.1931   -8.6278 N.2         1 G97      -0.2412
     27 NAN        18.6479    3.9664   -9.8642 N.pl3       1 G97      -0.2006
     28 H1         18.6588    6.1845  -15.8325 H           1 G97       0.0660
     29 H2         18.6730    7.3206  -17.9500 H           1 G97       0.0628
     30 H3         20.2567    6.6867  -19.6759 H           1 G97       0.0649
     31 H4         21.8379    4.8894  -19.2668 H           1 G97       0.0628
     32 H5         21.8409    3.7283  -17.1668 H           1 G97       0.0660
     33 H6         21.1012    0.3522  -14.6247 H           1 G97       0.0447
     34 H7         21.5841   -1.5584  -11.5856 H           1 G97       0.2290
     35 H8         22.6589   -3.7942  -13.5745 H           1 G97       0.0698
     36 H9         24.0719   -4.2709  -11.8087 H           1 G97       0.0686
     37 H10        24.1380   -2.6236  -11.3656 H           1 G97       0.0686
     38 H11        21.4117    0.4495  -10.4285 H           1 G97       0.0570
     39 H12        20.7941    2.7337  -10.4295 H           1 G97       0.0666
     40 H13        19.7605    6.1099  -11.9523 H           1 G97       0.2279
     41 H14        19.8226    6.8928   -9.4647 H           1 G97       0.0216
     42 H15        18.6465    5.8673   -7.3844 H           1 G97       0.0607
     43 H16        18.4208    3.1555  -10.3452 H           1 G97       0.2521
@<TRIPOS>BOND
     1     1     2  ar
     2     1     6  ar
     3     2     3  ar
     4     3     4  ar
     5     4     5  ar
     6     5     6  ar
     7     6     7   1
     8     7     8  ar
     9     7     9  ar
    10     8    21  ar
    11     9    10  ar
    12    10    11  ar
    13    10    20  ar
    14    11    12  ar
    15    12    13   1
    16    12    18  ar
    17    13    14  am
    18    14    15   2
    19    14    16   1
    20    16    17   2
    21    18    19  ar
    22    19    20  ar
    23    20    21  ar
    24    21    22   1
    25    22    23   1
    26    23    24   2
    27    23    27   1
    28    24    25   1
    29    25    26   2
    30    26    27   1
    31     1    28   1
    32     2    29   1
    33     3    30   1
    34     4    31   1
    35     5    32   1
    36    11    33   1
    37    13    34   1
    38    16    35   1
    39    17    36   1
    40    17    37   1
    41    18    38   1
    42    19    39   1
    43    22    40   1
    44    24    41   1
    45    25    42   1
    46    27    43   1
@<TRIPOS>SUBSTRUCTURE
     1  G97      1

