@<TRIPOS>MOLECULE
3huc_ligand_069
    43    46
SMALL
GAST_HUCK
****
This file was generated by PARSER (from files_GN.cpp)

@<TRIPOS>ATOM
      1 CAH        22.5764    0.0847   -9.0390 C.ar        1 G97      -0.0465
      2 CAE        22.4407    1.3691   -8.4799 C.ar        1 G97      -0.0569
      3 CAD        22.0943    1.5163   -7.1238 C.ar        1 G97      -0.0580
      4 CAF        21.8911    0.3763   -6.3237 C.ar        1 G97      -0.0569
      5 CAI        22.0285   -0.9105   -6.8775 C.ar        1 G97      -0.0465
      6 CAW        22.3669   -1.0598   -8.2397 C.ar        1 G97       0.0141
      7 C2         22.5095   -2.3375   -8.7930 C.ar        1 G97       0.0921
      8 N1         23.7082   -2.9586   -8.7455 N.ar        1 G97      -0.2553
      9 N3         21.4770   -2.9739   -9.3899 N.ar        1 G97      -0.3009
     10 C4         21.6267   -4.2094   -9.9287 C.ar        1 G97       0.0255
     11 CAM        20.5150   -4.8176  -10.5369 C.ar        1 G97      -0.0253
     12 CAU        20.6055   -6.1047  -11.1066 C.ar        1 G97       0.0730
     13 NAQ        19.4591   -6.5918  -11.6862 N.am        1 G97      -0.2295
     14 CAT        19.1227   -7.8160  -12.0750 C.2         1 G97       0.2258
     15 OAB        19.8283   -8.7993  -11.9042 O.2         1 G97      -0.3745
     16 CAC        17.8896   -8.0283  -12.5774 C.2         1 G97       0.0150
     17 CAA        17.4820   -7.5350  -13.7538 C.2         1 G97      -0.0781
     18 CAK        21.8585   -6.7619  -11.0631 C.ar        1 G97      -0.0283
     19 CAL        22.9805   -6.1574  -10.4639 C.ar        1 G97      -0.0465
     20 C5         22.8833   -4.8741   -9.8845 C.ar        1 G97       0.0455
     21 C6         23.9590   -4.1904   -9.2601 C.ar        1 G97       0.1561
     22 NAR        25.2074   -4.7178   -9.1518 N.pl3       1 G97      -0.2206
     23 CAV        26.3145   -4.1576   -8.5806 C.2         1 G97       0.1818
     24 CAJ        26.5222   -2.9256   -7.9665 C.2         1 G97      -0.0280
     25 CAG        27.8397   -2.9080   -7.5553 C.2         1 G97      -0.0243
     26 NAS        28.3977   -4.0712   -7.9178 N.2         1 G97      -0.2412
     27 NAN        27.5015   -4.7871   -8.5221 N.pl3       1 G97      -0.2006
     28 H1         22.8357   -0.0060  -10.0242 H           1 G97       0.0660
     29 H2         22.5982    2.1977   -9.0602 H           1 G97       0.0628
     30 H3         21.9900    2.4490   -6.7212 H           1 G97       0.0649
     31 H4         21.6448    0.4833   -5.3359 H           1 G97       0.0628
     32 H5         21.8863   -1.7295   -6.2807 H           1 G97       0.0660
     33 H6         19.6230   -4.3141  -10.5582 H           1 G97       0.0447
     34 H7         18.7536   -5.9338  -11.8036 H           1 G97       0.2290
     35 H8         17.2526   -8.5786  -12.0455 H           1 G97       0.0698
     36 H9         16.5592   -7.7137  -14.0746 H           1 G97       0.0686
     37 H10        18.0827   -6.9951  -14.3287 H           1 G97       0.0686
     38 H11        21.9799   -7.6818  -11.4826 H           1 G97       0.0570
     39 H12        23.8689   -6.6610  -10.4651 H           1 G97       0.0666
     40 H13        25.3339   -5.6073   -9.5177 H           1 G97       0.2279
     41 H14        25.8657   -2.1617   -7.8241 H           1 G97       0.0216
     42 H15        28.3023   -2.1408   -7.0632 H           1 G97       0.0607
     43 H16        27.6806   -5.6684   -8.8834 H           1 G97       0.2521
@<TRIPOS>BOND
     1     1     2  ar
     2     1     6  ar
     3     2     3  ar
     4     3     4  ar
     5     4     5  ar
     6     5     6  ar
     7     6     7   1
     8     7     8  ar
     9     7     9  ar
    10     8    21  ar
    11     9    10  ar
    12    10    11  ar
    13    10    20  ar
    14    11    12  ar
    15    12    13   1
    16    12    18  ar
    17    13    14  am
    18    14    15   2
    19    14    16   1
    20    16    17   2
    21    18    19  ar
    22    19    20  ar
    23    20    21  ar
    24    21    22   1
    25    22    23   1
    26    23    24   2
    27    23    27   1
    28    24    25   1
    29    25    26   2
    30    26    27   1
    31     1    28   1
    32     2    29   1
    33     3    30   1
    34     4    31   1
    35     5    32   1
    36    11    33   1
    37    13    34   1
    38    16    35   1
    39    17    36   1
    40    17    37   1
    41    18    38   1
    42    19    39   1
    43    22    40   1
    44    24    41   1
    45    25    42   1
    46    27    43   1
@<TRIPOS>SUBSTRUCTURE
     1  G97      1

