@<TRIPOS>MOLECULE
3huc_ligand_025
    43    46
SMALL
GAST_HUCK
****
This file was generated by PARSER (from files_GN.cpp)

@<TRIPOS>ATOM
      1 CAH        20.3388    1.8938  -16.1077 C.ar        1 G97      -0.0465
      2 CAE        19.8447    2.3607  -14.8734 C.ar        1 G97      -0.0569
      3 CAD        20.3364    1.8214  -13.6711 C.ar        1 G97      -0.0580
      4 CAF        21.3167    0.8130  -13.7033 C.ar        1 G97      -0.0569
      5 CAI        21.8004    0.3364  -14.9394 C.ar        1 G97      -0.0465
      6 CAW        21.3176    0.8697  -16.1586 C.ar        1 G97       0.0141
      7 C2         21.7837    0.3784  -17.4006 C.ar        1 G97       0.0921
      8 N1         21.8581   -0.9550  -17.6426 N.ar        1 G97      -0.2553
      9 N3         22.1236    1.2315  -18.3991 N.ar        1 G97      -0.3009
     10 C4         22.5529    0.7954  -19.6132 C.ar        1 G97       0.0255
     11 CAM        22.9103    1.7337  -20.6021 C.ar        1 G97      -0.0253
     12 CAU        23.3508    1.3122  -21.8792 C.ar        1 G97       0.0730
     13 NAQ        23.7152    2.1339  -22.9153 N.am        1 G97      -0.2295
     14 CAT        24.0471    3.4201  -22.9317 C.2         1 G97       0.2258
     15 OAB        24.1181    4.1157  -21.9270 O.2         1 G97      -0.3745
     16 CAC        24.4274    3.9626  -24.1051 C.2         1 G97       0.0150
     17 CAA        23.8064    5.0047  -24.6764 C.2         1 G97      -0.0781
     18 CAK        23.3907   -0.0749  -22.1420 C.ar        1 G97      -0.0283
     19 CAL        23.0443   -1.0208  -21.1635 C.ar        1 G97      -0.0465
     20 C5         22.6284   -0.6033  -19.8763 C.ar        1 G97       0.0455
     21 C6         22.2467   -1.4896  -18.8319 C.ar        1 G97       0.1561
     22 NAR        22.2279   -2.8329  -19.0330 N.pl3       1 G97      -0.2206
     23 CAV        21.8062   -3.8026  -18.1811 C.2         1 G97       0.1818
     24 CAJ        21.8041   -5.1548  -18.4800 C.2         1 G97      -0.0280
     25 CAG        21.3105   -5.7940  -17.3546 C.2         1 G97      -0.0243
     26 NAS        21.0266   -4.8574  -16.4343 N.2         1 G97      -0.2412
     27 NAN        21.3172   -3.6971  -16.9310 N.pl3       1 G97      -0.2006
     28 H1         19.9532    2.2873  -16.9704 H           1 G97       0.0660
     29 H2         19.1257    3.0855  -14.8488 H           1 G97       0.0628
     30 H3         19.9821    2.1624  -12.7739 H           1 G97       0.0649
     31 H4         21.6798    0.4318  -12.8282 H           1 G97       0.0628
     32 H5         22.5192   -0.3914  -14.9410 H           1 G97       0.0660
     33 H6         22.8186    2.7216  -20.3805 H           1 G97       0.0447
     34 H7         23.7673    1.6939  -23.7814 H           1 G97       0.2290
     35 H8         25.2073    3.5632  -24.5740 H           1 G97       0.0698
     36 H9         24.1338    5.3549  -25.5464 H           1 G97       0.0686
     37 H10        23.0116    5.4325  -24.2634 H           1 G97       0.0686
     38 H11        23.6904   -0.4199  -23.0590 H           1 G97       0.0570
     39 H12        23.1044   -2.0088  -21.4036 H           1 G97       0.0666
     40 H13        22.5126   -3.1476  -19.9089 H           1 G97       0.2279
     41 H14        22.0990   -5.5979  -19.3532 H           1 G97       0.0216
     42 H15        21.1773   -6.7992  -17.2397 H           1 G97       0.0607
     43 H16        21.1984   -2.8585  -16.4545 H           1 G97       0.2521
@<TRIPOS>BOND
     1     1     2  ar
     2     1     6  ar
     3     2     3  ar
     4     3     4  ar
     5     4     5  ar
     6     5     6  ar
     7     6     7   1
     8     7     8  ar
     9     7     9  ar
    10     8    21  ar
    11     9    10  ar
    12    10    11  ar
    13    10    20  ar
    14    11    12  ar
    15    12    13   1
    16    12    18  ar
    17    13    14  am
    18    14    15   2
    19    14    16   1
    20    16    17   2
    21    18    19  ar
    22    19    20  ar
    23    20    21  ar
    24    21    22   1
    25    22    23   1
    26    23    24   2
    27    23    27   1
    28    24    25   1
    29    25    26   2
    30    26    27   1
    31     1    28   1
    32     2    29   1
    33     3    30   1
    34     4    31   1
    35     5    32   1
    36    11    33   1
    37    13    34   1
    38    16    35   1
    39    17    36   1
    40    17    37   1
    41    18    38   1
    42    19    39   1
    43    22    40   1
    44    24    41   1
    45    25    42   1
    46    27    43   1
@<TRIPOS>SUBSTRUCTURE
     1  G97      1

