@<TRIPOS>MOLECULE
3huc_ligand_027
    43    46
SMALL
GAST_HUCK
****
This file was generated by PARSER (from files_GN.cpp)

@<TRIPOS>ATOM
      1 CAH        20.6163   -0.3070  -11.1696 C.ar        1 G97      -0.0465
      2 CAE        20.3565   -0.0349   -9.8154 C.ar        1 G97      -0.0569
      3 CAD        20.3342    1.2926   -9.3592 C.ar        1 G97      -0.0580
      4 CAF        20.5748    2.3459  -10.2580 C.ar        1 G97      -0.0569
      5 CAI        20.8347    2.0696  -11.6149 C.ar        1 G97      -0.0465
      6 CAW        20.8530    0.7363  -12.1024 C.ar        1 G97       0.0141
      7 C2         21.1107    0.4508  -13.4787 C.ar        1 G97       0.0921
      8 N1         21.0209   -0.8185  -13.9618 N.ar        1 G97      -0.2553
      9 N3         21.4546    1.4187  -14.3652 N.ar        1 G97      -0.3009
     10 C4         21.7256    1.1590  -15.6693 C.ar        1 G97       0.0255
     11 CAM        22.0936    2.2201  -16.5131 C.ar        1 G97      -0.0253
     12 CAU        22.4025    1.9957  -17.8692 C.ar        1 G97       0.0730
     13 NAQ        22.7942    3.0814  -18.5984 N.am        1 G97      -0.2295
     14 CAT        22.6724    3.3088  -19.9027 C.2         1 G97       0.2258
     15 OAB        22.0979    2.5389  -20.6614 O.2         1 G97      -0.3745
     16 CAC        23.0729    4.4891  -20.4143 C.2         1 G97       0.0150
     17 CAA        24.2824    5.0191  -20.1833 C.2         1 G97      -0.0781
     18 CAK        22.3449    0.6727  -18.3631 C.ar        1 G97      -0.0283
     19 CAL        21.9657   -0.3946  -17.5279 C.ar        1 G97      -0.0465
     20 C5         21.6443   -0.1709  -16.1670 C.ar        1 G97       0.0455
     21 C6         21.2498   -1.1791  -15.2531 C.ar        1 G97       0.1561
     22 NAR        21.1039   -2.4779  -15.6197 N.pl3       1 G97      -0.2206
     23 CAV        20.6986   -3.5406  -14.8683 C.2         1 G97       0.1818
     24 CAJ        20.0758   -3.6358  -13.6268 C.2         1 G97      -0.0280
     25 CAG        19.9145   -4.9899  -13.3717 C.2         1 G97      -0.0243
     26 NAS        20.3892   -5.6599  -14.4311 N.2         1 G97      -0.2412
     27 NAN        20.8282   -4.8050  -15.2991 N.pl3       1 G97      -0.2006
     28 H1         20.6386   -1.2866  -11.4616 H           1 G97       0.0660
     29 H2         20.1879   -0.8026   -9.1609 H           1 G97       0.0628
     30 H3         20.1482    1.4925   -8.3715 H           1 G97       0.0649
     31 H4         20.5606    3.3121   -9.9238 H           1 G97       0.0628
     32 H5         20.9980    2.8575  -12.2438 H           1 G97       0.0660
     33 H6         22.1353    3.1719  -16.1409 H           1 G97       0.0447
     34 H7         23.1685    3.8139  -18.0818 H           1 G97       0.2290
     35 H8         22.4438    4.9921  -21.0009 H           1 G97       0.0698
     36 H9         24.5214    5.8969  -20.5712 H           1 G97       0.0686
     37 H10        24.9576    4.5482  -19.6281 H           1 G97       0.0686
     38 H11        22.6015    0.4678  -19.3318 H           1 G97       0.0570
     39 H12        21.9317   -1.3323  -17.9270 H           1 G97       0.0666
     40 H13        21.3403   -2.6923  -16.5342 H           1 G97       0.2279
     41 H14        19.7602   -2.8816  -13.0186 H           1 G97       0.0216
     42 H15        19.4914   -5.4061  -12.5411 H           1 G97       0.0607
     43 H16        21.2092   -5.0526  -16.1553 H           1 G97       0.2521
@<TRIPOS>BOND
     1     1     2  ar
     2     1     6  ar
     3     2     3  ar
     4     3     4  ar
     5     4     5  ar
     6     5     6  ar
     7     6     7   1
     8     7     8  ar
     9     7     9  ar
    10     8    21  ar
    11     9    10  ar
    12    10    11  ar
    13    10    20  ar
    14    11    12  ar
    15    12    13   1
    16    12    18  ar
    17    13    14  am
    18    14    15   2
    19    14    16   1
    20    16    17   2
    21    18    19  ar
    22    19    20  ar
    23    20    21  ar
    24    21    22   1
    25    22    23   1
    26    23    24   2
    27    23    27   1
    28    24    25   1
    29    25    26   2
    30    26    27   1
    31     1    28   1
    32     2    29   1
    33     3    30   1
    34     4    31   1
    35     5    32   1
    36    11    33   1
    37    13    34   1
    38    16    35   1
    39    17    36   1
    40    17    37   1
    41    18    38   1
    42    19    39   1
    43    22    40   1
    44    24    41   1
    45    25    42   1
    46    27    43   1
@<TRIPOS>SUBSTRUCTURE
     1  G97      1

