@<TRIPOS>MOLECULE
3huc_ligand_092
    43    46
SMALL
GAST_HUCK
****
This file was generated by PARSER (from files_GN.cpp)

@<TRIPOS>ATOM
      1 CAH        20.0516   -6.8990   -9.7122 C.ar        1 G97      -0.0465
      2 CAE        21.3593   -6.4432   -9.4709 C.ar        1 G97      -0.0569
      3 CAD        21.5726   -5.1340   -8.9990 C.ar        1 G97      -0.0580
      4 CAF        20.4744   -4.2886   -8.7690 C.ar        1 G97      -0.0569
      5 CAI        19.1666   -4.7497   -8.9981 C.ar        1 G97      -0.0465
      6 CAW        18.9260   -6.0628   -9.4796 C.ar        1 G97       0.0141
      7 C2         17.6043   -6.5183   -9.7516 C.ar        1 G97       0.0921
      8 N1         16.5105   -5.9533   -9.1729 N.ar        1 G97      -0.2553
      9 N3         17.3868   -7.5550  -10.5986 N.ar        1 G97      -0.3009
     10 C4         16.1522   -7.9941  -10.9333 C.ar        1 G97       0.0255
     11 CAM        16.0332   -9.0737  -11.8266 C.ar        1 G97      -0.0253
     12 CAU        14.7596   -9.5259  -12.2281 C.ar        1 G97       0.0730
     13 NAQ        14.5246  -10.6541  -12.9643 N.am        1 G97      -0.2295
     14 CAT        15.2341  -11.7789  -13.0200 C.2         1 G97       0.2258
     15 OAB        16.3131  -11.9371  -12.4598 O.2         1 G97      -0.3745
     16 CAC        14.6385  -12.8737  -13.5214 C.2         1 G97       0.0150
     17 CAA        13.6796  -13.5288  -12.8580 C.2         1 G97      -0.0781
     18 CAK        13.6254   -8.7838  -11.8334 C.ar        1 G97      -0.0283
     19 CAL        13.7547   -7.6926  -10.9534 C.ar        1 G97      -0.0465
     20 C5         15.0050   -7.3449  -10.3948 C.ar        1 G97       0.0455
     21 C6         15.2265   -6.3385   -9.4102 C.ar        1 G97       0.1561
     22 NAR        14.3537   -5.6937   -8.5898 N.pl3       1 G97      -0.2206
     23 CAV        13.0984   -6.0019   -8.1593 C.2         1 G97       0.1818
     24 CAJ        12.3853   -7.2021   -8.1501 C.2         1 G97      -0.0280
     25 CAG        11.1999   -6.9322   -7.4898 C.2         1 G97      -0.0243
     26 NAS        11.2259   -5.6512   -7.0625 N.2         1 G97      -0.2412
     27 NAN        12.3404   -5.1235   -7.4630 N.pl3       1 G97      -0.2006
     28 H1         19.9340   -7.8571  -10.0519 H           1 G97       0.0660
     29 H2         22.1631   -7.0574   -9.6430 H           1 G97       0.0628
     30 H3         22.5216   -4.8037   -8.8197 H           1 G97       0.0649
     31 H4         20.6268   -3.3333   -8.4326 H           1 G97       0.0628
     32 H5         18.3872   -4.1079   -8.8225 H           1 G97       0.0660
     33 H6         16.8834   -9.5243  -12.1738 H           1 G97       0.0447
     34 H7         13.6445  -10.7081  -13.3679 H           1 G97       0.2290
     35 H8         14.9414  -13.2078  -14.4093 H           1 G97       0.0698
     36 H9         13.3706  -13.2254  -11.9658 H           1 G97       0.0686
     37 H10        13.2667  -14.3360  -13.2487 H           1 G97       0.0686
     38 H11        12.6925   -9.0487  -12.1567 H           1 G97       0.0570
     39 H12        12.9204   -7.1655  -10.7176 H           1 G97       0.0666
     40 H13        14.7441   -4.9372   -8.1193 H           1 G97       0.2279
     41 H14        12.6740   -8.1226   -8.4929 H           1 G97       0.0216
     42 H15        10.4564   -7.6090   -7.3064 H           1 G97       0.0607
     43 H16        12.6097   -4.2125   -7.2634 H           1 G97       0.2521
@<TRIPOS>BOND
     1     1     2  ar
     2     1     6  ar
     3     2     3  ar
     4     3     4  ar
     5     4     5  ar
     6     5     6  ar
     7     6     7   1
     8     7     8  ar
     9     7     9  ar
    10     8    21  ar
    11     9    10  ar
    12    10    11  ar
    13    10    20  ar
    14    11    12  ar
    15    12    13   1
    16    12    18  ar
    17    13    14  am
    18    14    15   2
    19    14    16   1
    20    16    17   2
    21    18    19  ar
    22    19    20  ar
    23    20    21  ar
    24    21    22   1
    25    22    23   1
    26    23    24   2
    27    23    27   1
    28    24    25   1
    29    25    26   2
    30    26    27   1
    31     1    28   1
    32     2    29   1
    33     3    30   1
    34     4    31   1
    35     5    32   1
    36    11    33   1
    37    13    34   1
    38    16    35   1
    39    17    36   1
    40    17    37   1
    41    18    38   1
    42    19    39   1
    43    22    40   1
    44    24    41   1
    45    25    42   1
    46    27    43   1
@<TRIPOS>SUBSTRUCTURE
     1  G97      1

