@<TRIPOS>MOLECULE
3huc_ligand_030
    43    46
SMALL
GAST_HUCK
****
This file was generated by PARSER (from files_GN.cpp)

@<TRIPOS>ATOM
      1 CAH        23.1428   -1.9361  -19.4287 C.ar        1 G97      -0.0465
      2 CAE        23.6398   -3.2022  -19.7897 C.ar        1 G97      -0.0569
      3 CAD        24.8484   -3.3062  -20.5020 C.ar        1 G97      -0.0580
      4 CAF        25.5584   -2.1443  -20.8554 C.ar        1 G97      -0.0569
      5 CAI        25.0522   -0.8790  -20.5065 C.ar        1 G97      -0.0465
      6 CAW        23.8421   -0.7552  -19.7832 C.ar        1 G97       0.0141
      7 C2         23.3526    0.5216  -19.4162 C.ar        1 G97       0.0921
      8 N1         22.8603    0.7381  -18.1719 N.ar        1 G97      -0.2553
      9 N3         23.3698    1.5695  -20.2758 N.ar        1 G97      -0.3009
     10 C4         22.9027    2.7982  -19.9392 C.ar        1 G97       0.0255
     11 CAM        22.9182    3.8357  -20.8929 C.ar        1 G97      -0.0253
     12 CAU        22.4202    5.1204  -20.5786 C.ar        1 G97       0.0730
     13 NAQ        22.4169    6.0611  -21.5808 N.am        1 G97      -0.2295
     14 CAT        22.3804    7.3905  -21.5048 C.2         1 G97       0.2258
     15 OAB        22.4358    7.9626  -20.4199 O.2         1 G97      -0.3745
     16 CAC        22.3151    8.1259  -22.6536 C.2         1 G97       0.0150
     17 CAA        22.9225    9.3084  -22.8463 C.2         1 G97      -0.0781
     18 CAK        21.8939    5.3330  -19.2783 C.ar        1 G97      -0.0283
     19 CAL        21.8950    4.3092  -18.3180 C.ar        1 G97      -0.0465
     20 C5         22.3893    3.0228  -18.6305 C.ar        1 G97       0.0455
     21 C6         22.3883    1.9297  -17.7239 C.ar        1 G97       0.1561
     22 NAR        21.9389    2.0624  -16.4445 N.pl3       1 G97      -0.2206
     23 CAV        21.9003    1.1341  -15.4498 C.2         1 G97       0.1818
     24 CAJ        22.2842   -0.2026  -15.3985 C.2         1 G97      -0.0280
     25 CAG        22.0253   -0.6253  -14.1053 C.2         1 G97      -0.0243
     26 NAS        21.5094    0.4110  -13.4275 N.2         1 G97      -0.2412
     27 NAN        21.4399    1.4303  -14.2241 N.pl3       1 G97      -0.2006
     28 H1         22.2589   -1.8816  -18.9141 H           1 G97       0.0660
     29 H2         23.1256   -4.0450  -19.5328 H           1 G97       0.0628
     30 H3         25.2122   -4.2252  -20.7612 H           1 G97       0.0649
     31 H4         26.4418   -2.2180  -21.3604 H           1 G97       0.0628
     32 H5         25.5892   -0.0487  -20.7670 H           1 G97       0.0660
     33 H6         23.2906    3.6505  -21.8300 H           1 G97       0.0447
     34 H7         22.4908    5.7015  -22.4780 H           1 G97       0.2290
     35 H8         21.7747    7.7633  -23.4110 H           1 G97       0.0698
     36 H9         22.8172    9.7793  -23.7096 H           1 G97       0.0686
     37 H10        23.4893    9.7303  -22.1507 H           1 G97       0.0686
     38 H11        21.4687    6.2240  -19.0241 H           1 G97       0.0570
     39 H12        21.5114    4.5101  -17.3908 H           1 G97       0.0666
     40 H13        21.6187    2.9379  -16.1957 H           1 G97       0.2279
     41 H14        22.6780   -0.7684  -16.1467 H           1 G97       0.0216
     42 H15        22.1935   -1.5589  -13.7266 H           1 G97       0.0607
     43 H16        21.1023    2.3000  -13.9626 H           1 G97       0.2521
@<TRIPOS>BOND
     1     1     2  ar
     2     1     6  ar
     3     2     3  ar
     4     3     4  ar
     5     4     5  ar
     6     5     6  ar
     7     6     7   1
     8     7     8  ar
     9     7     9  ar
    10     8    21  ar
    11     9    10  ar
    12    10    11  ar
    13    10    20  ar
    14    11    12  ar
    15    12    13   1
    16    12    18  ar
    17    13    14  am
    18    14    15   2
    19    14    16   1
    20    16    17   2
    21    18    19  ar
    22    19    20  ar
    23    20    21  ar
    24    21    22   1
    25    22    23   1
    26    23    24   2
    27    23    27   1
    28    24    25   1
    29    25    26   2
    30    26    27   1
    31     1    28   1
    32     2    29   1
    33     3    30   1
    34     4    31   1
    35     5    32   1
    36    11    33   1
    37    13    34   1
    38    16    35   1
    39    17    36   1
    40    17    37   1
    41    18    38   1
    42    19    39   1
    43    22    40   1
    44    24    41   1
    45    25    42   1
    46    27    43   1
@<TRIPOS>SUBSTRUCTURE
     1  G97      1

