@<TRIPOS>MOLECULE
3huc_ligand_060
    43    46
SMALL
GAST_HUCK
****
This file was generated by PARSER (from files_GN.cpp)

@<TRIPOS>ATOM
      1 CAH        22.6929    6.9061  -16.8925 C.ar        1 G97      -0.0465
      2 CAE        22.7494    7.5388  -15.6353 C.ar        1 G97      -0.0569
      3 CAD        23.1194    8.8919  -15.5466 C.ar        1 G97      -0.0580
      4 CAF        23.4430    9.6084  -16.7107 C.ar        1 G97      -0.0569
      5 CAI        23.3810    8.9777  -17.9669 C.ar        1 G97      -0.0465
      6 CAW        22.9959    7.6200  -18.0776 C.ar        1 G97       0.0141
      7 C2         22.9336    6.9926  -19.3517 C.ar        1 G97       0.0921
      8 N1         22.5629    7.6787  -20.4665 N.ar        1 G97      -0.2553
      9 N3         23.2637    5.6854  -19.4996 N.ar        1 G97      -0.3009
     10 C4         23.2393    5.0568  -20.7012 C.ar        1 G97       0.0255
     11 CAM        23.6075    3.7034  -20.7703 C.ar        1 G97      -0.0253
     12 CAU        23.5887    3.0052  -21.9989 C.ar        1 G97       0.0730
     13 NAQ        23.9532    1.6906  -22.1679 N.am        1 G97      -0.2295
     14 CAT        24.0789    0.7146  -21.2702 C.2         1 G97       0.2258
     15 OAB        23.7319    0.8220  -20.1000 O.2         1 G97      -0.3745
     16 CAC        24.5639   -0.4791  -21.6652 C.2         1 G97       0.0150
     17 CAA        25.7777   -0.9234  -21.3048 C.2         1 G97      -0.0781
     18 CAK        23.2302    3.7216  -23.1663 C.ar        1 G97      -0.0283
     19 CAL        22.8589    5.0761  -23.1025 C.ar        1 G97      -0.0465
     20 C5         22.8530    5.7695  -21.8685 C.ar        1 G97       0.0455
     21 C6         22.5012    7.1368  -21.7158 C.ar        1 G97       0.1561
     22 NAR        22.1083    7.8831  -22.7754 N.pl3       1 G97      -0.2206
     23 CAV        21.7522    9.1940  -22.7873 C.2         1 G97       0.1818
     24 CAJ        21.2322    9.8302  -23.9022 C.2         1 G97      -0.0280
     25 CAG        20.9946   11.1397  -23.5193 C.2         1 G97      -0.0243
     26 NAS        21.3670   11.2714  -22.2365 N.2         1 G97      -0.2412
     27 NAN        21.8105   10.1253  -21.8178 N.pl3       1 G97      -0.2006
     28 H1         22.4087    5.9252  -16.9307 H           1 G97       0.0660
     29 H2         22.5219    7.0155  -14.7884 H           1 G97       0.0628
     30 H3         23.1573    9.3537  -14.6331 H           1 G97       0.0649
     31 H4         23.7234   10.5881  -16.6462 H           1 G97       0.0628
     32 H5         23.6376    9.5166  -18.7963 H           1 G97       0.0660
     33 H6         23.9214    3.2392  -19.9161 H           1 G97       0.0447
     34 H7         24.1480    1.4350  -23.0815 H           1 G97       0.2290
     35 H8         24.0152   -1.0354  -22.2780 H           1 G97       0.0698
     36 H9         26.0994   -1.8076  -21.6210 H           1 G97       0.0686
     37 H10        26.3774   -0.3825  -20.7242 H           1 G97       0.0686
     38 H11        23.2417    3.2584  -24.0752 H           1 G97       0.0570
     39 H12        22.5997    5.5497  -23.9706 H           1 G97       0.0666
     40 H13        22.0559    7.4317  -23.6291 H           1 G97       0.2279
     41 H14        21.0501    9.4188  -24.8217 H           1 G97       0.0216
     42 H15        20.6051   11.8772  -24.1076 H           1 G97       0.0607
     43 H16        22.1446    9.9700  -20.9216 H           1 G97       0.2521
@<TRIPOS>BOND
     1     1     2  ar
     2     1     6  ar
     3     2     3  ar
     4     3     4  ar
     5     4     5  ar
     6     5     6  ar
     7     6     7   1
     8     7     8  ar
     9     7     9  ar
    10     8    21  ar
    11     9    10  ar
    12    10    11  ar
    13    10    20  ar
    14    11    12  ar
    15    12    13   1
    16    12    18  ar
    17    13    14  am
    18    14    15   2
    19    14    16   1
    20    16    17   2
    21    18    19  ar
    22    19    20  ar
    23    20    21  ar
    24    21    22   1
    25    22    23   1
    26    23    24   2
    27    23    27   1
    28    24    25   1
    29    25    26   2
    30    26    27   1
    31     1    28   1
    32     2    29   1
    33     3    30   1
    34     4    31   1
    35     5    32   1
    36    11    33   1
    37    13    34   1
    38    16    35   1
    39    17    36   1
    40    17    37   1
    41    18    38   1
    42    19    39   1
    43    22    40   1
    44    24    41   1
    45    25    42   1
    46    27    43   1
@<TRIPOS>SUBSTRUCTURE
     1  G97      1

