@<TRIPOS>MOLECULE
3huc_ligand_061
    43    46
SMALL
GAST_HUCK
****
This file was generated by PARSER (from files_GN.cpp)

@<TRIPOS>ATOM
      1 CAH        25.6601   -2.6974   -9.3473 C.ar        1 G97      -0.0465
      2 CAE        26.8549   -2.5793   -8.6135 C.ar        1 G97      -0.0569
      3 CAD        27.3924   -3.7005   -7.9608 C.ar        1 G97      -0.0580
      4 CAF        26.7342   -4.9383   -8.0458 C.ar        1 G97      -0.0569
      5 CAI        25.5446   -5.0575   -8.7896 C.ar        1 G97      -0.0465
      6 CAW        24.9773   -3.9381   -9.4533 C.ar        1 G97       0.0141
      7 C2         23.7671   -4.0519  -10.2039 C.ar        1 G97       0.0921
      8 N1         23.1556   -2.9561  -10.7269 N.ar        1 G97      -0.2553
      9 N3         23.1618   -5.2497  -10.4188 N.ar        1 G97      -0.3009
     10 C4         22.0288   -5.3848  -11.1536 C.ar        1 G97       0.0255
     11 CAM        21.4916   -6.6712  -11.3600 C.ar        1 G97      -0.0253
     12 CAU        20.3560   -6.8640  -12.1762 C.ar        1 G97       0.0730
     13 NAQ        19.9067   -8.1515  -12.3283 N.am        1 G97      -0.2295
     14 CAT        18.7137   -8.6096  -12.6985 C.2         1 G97       0.2258
     15 OAB        17.7670   -7.8581  -12.9003 O.2         1 G97      -0.3745
     16 CAC        18.5457   -9.9528  -12.8261 C.2         1 G97       0.0150
     17 CAA        17.3804  -10.6040  -12.7016 C.2         1 G97      -0.0781
     18 CAK        19.8174   -5.7379  -12.8408 C.ar        1 G97      -0.0283
     19 CAL        20.3452   -4.4517  -12.6301 C.ar        1 G97      -0.0465
     20 C5         21.4198   -4.2400  -11.7371 C.ar        1 G97       0.0455
     21 C6         22.0028   -2.9757  -11.4432 C.ar        1 G97       0.1561
     22 NAR        21.5759   -1.7271  -11.7592 N.pl3       1 G97      -0.2206
     23 CAV        20.3320   -1.2753  -12.0549 C.2         1 G97       0.1818
     24 CAJ        19.0935   -1.7033  -11.5925 C.2         1 G97      -0.0280
     25 CAG        18.1688   -0.8150  -12.1163 C.2         1 G97      -0.0243
     26 NAS        18.8338    0.1144  -12.8212 N.2         1 G97      -0.2412
     27 NAN        20.1012   -0.1590  -12.7655 N.pl3       1 G97      -0.2006
     28 H1         25.3001   -1.8599   -9.8100 H           1 G97       0.0660
     29 H2         27.3324   -1.6767   -8.5559 H           1 G97       0.0628
     30 H3         28.2610   -3.6171   -7.4275 H           1 G97       0.0649
     31 H4         27.1222   -5.7522   -7.5644 H           1 G97       0.0628
     32 H5         25.0957   -5.9757   -8.8333 H           1 G97       0.0660
     33 H6         21.9390   -7.4766  -10.9137 H           1 G97       0.0447
     34 H7         20.5483   -8.8372  -12.0814 H           1 G97       0.2290
     35 H8         19.3501  -10.5063  -13.0178 H           1 G97       0.0698
     36 H9         17.3471  -11.5894  -12.8160 H           1 G97       0.0686
     37 H10        16.5352  -10.1259  -12.4946 H           1 G97       0.0686
     38 H11        19.0596   -5.8420  -13.5165 H           1 G97       0.0570
     39 H12        19.9588   -3.6841  -13.1779 H           1 G97       0.0666
     40 H13        22.2334   -1.0252  -11.6359 H           1 G97       0.2279
     41 H14        18.8988   -2.4905  -10.9711 H           1 G97       0.0216
     42 H15        17.1587   -0.8430  -11.9695 H           1 G97       0.0607
     43 H16        20.7947    0.3774  -13.1817 H           1 G97       0.2521
@<TRIPOS>BOND
     1     1     2  ar
     2     1     6  ar
     3     2     3  ar
     4     3     4  ar
     5     4     5  ar
     6     5     6  ar
     7     6     7   1
     8     7     8  ar
     9     7     9  ar
    10     8    21  ar
    11     9    10  ar
    12    10    11  ar
    13    10    20  ar
    14    11    12  ar
    15    12    13   1
    16    12    18  ar
    17    13    14  am
    18    14    15   2
    19    14    16   1
    20    16    17   2
    21    18    19  ar
    22    19    20  ar
    23    20    21  ar
    24    21    22   1
    25    22    23   1
    26    23    24   2
    27    23    27   1
    28    24    25   1
    29    25    26   2
    30    26    27   1
    31     1    28   1
    32     2    29   1
    33     3    30   1
    34     4    31   1
    35     5    32   1
    36    11    33   1
    37    13    34   1
    38    16    35   1
    39    17    36   1
    40    17    37   1
    41    18    38   1
    42    19    39   1
    43    22    40   1
    44    24    41   1
    45    25    42   1
    46    27    43   1
@<TRIPOS>SUBSTRUCTURE
     1  G97      1

