@<TRIPOS>MOLECULE
3huc_ligand_091
    43    46
SMALL
GAST_HUCK
****
This file was generated by PARSER (from files_GN.cpp)

@<TRIPOS>ATOM
      1 CAH        21.0275    1.3072  -15.2743 C.ar        1 G97      -0.0465
      2 CAE        22.1038    1.6244  -16.1232 C.ar        1 G97      -0.0569
      3 CAD        21.9864    2.6807  -17.0412 C.ar        1 G97      -0.0580
      4 CAF        20.7986    3.4281  -17.0991 C.ar        1 G97      -0.0569
      5 CAI        19.7249    3.1114  -16.2444 C.ar        1 G97      -0.0465
      6 CAW        19.8104    2.0384  -15.3178 C.ar        1 G97       0.0141
      7 C2         18.6922    1.6655  -14.5110 C.ar        1 G97       0.0921
      8 N1         17.5728    2.4347  -14.4100 N.ar        1 G97      -0.2553
      9 N3         18.7012    0.5123  -13.7947 N.ar        1 G97      -0.3009
     10 C4         17.6259    0.0590  -13.1075 C.ar        1 G97       0.0255
     11 CAM        17.7311   -1.1606  -12.4081 C.ar        1 G97      -0.0253
     12 CAU        16.6236   -1.7320  -11.7436 C.ar        1 G97       0.0730
     13 NAQ        16.8599   -2.9009  -11.0681 N.am        1 G97      -0.2295
     14 CAT        16.0278   -3.7618  -10.4894 C.2         1 G97       0.2258
     15 OAB        14.8093   -3.6538  -10.4824 O.2         1 G97      -0.3745
     16 CAC        16.5544   -4.8471   -9.8866 C.2         1 G97       0.0150
     17 CAA        16.3676   -6.0979  -10.3317 C.2         1 G97      -0.0781
     18 CAK        15.3866   -1.0471  -11.8549 C.ar        1 G97      -0.0283
     19 CAL        15.2558    0.1620  -12.6336 C.ar        1 G97      -0.0465
     20 C5         16.4100    0.7950  -13.1329 C.ar        1 G97       0.0455
     21 C6         16.4555    2.0969  -13.7099 C.ar        1 G97       0.1561
     22 NAR        15.6229    3.1650  -13.6067 N.pl3       1 G97      -0.2206
     23 CAV        14.7852    3.6427  -12.6388 C.2         1 G97       0.1818
     24 CAJ        14.3528    3.2744  -11.3515 C.2         1 G97      -0.0280
     25 CAG        13.5209    4.3084  -10.9241 C.2         1 G97      -0.0243
     26 NAS        13.5145    5.2639  -11.8612 N.2         1 G97      -0.2412
     27 NAN        14.2513    4.8630  -12.8487 N.pl3       1 G97      -0.2006
     28 H1         21.1461    0.5264  -14.6253 H           1 G97       0.0660
     29 H2         22.9715    1.0852  -16.0756 H           1 G97       0.0628
     30 H3         22.7653    2.9033  -17.6672 H           1 G97       0.0649
     31 H4         20.7145    4.1991  -17.7659 H           1 G97       0.0628
     32 H5         18.8678    3.6672  -16.3234 H           1 G97       0.0660
     33 H6         18.6366   -1.6380  -12.3841 H           1 G97       0.0447
     34 H7         17.7944   -3.1681  -11.0373 H           1 G97       0.2290
     35 H8         17.0780   -4.7076   -9.0520 H           1 G97       0.0698
     36 H9         16.7367   -6.8686   -9.8231 H           1 G97       0.0686
     37 H10        15.8586   -6.2820  -11.1693 H           1 G97       0.0686
     38 H11        14.5574   -1.3852  -11.3488 H           1 G97       0.0570
     39 H12        14.3489    0.6944  -12.8264 H           1 G97       0.0666
     40 H13        15.8215    3.8484  -14.2666 H           1 G97       0.2279
     41 H14        14.4205    2.1487  -10.8123 H           1 G97       0.0216
     42 H15        12.9999    4.3653  -10.0453 H           1 G97       0.0607
     43 H16        14.4219    5.3923  -13.6465 H           1 G97       0.2521
@<TRIPOS>BOND
     1     1     2  ar
     2     1     6  ar
     3     2     3  ar
     4     3     4  ar
     5     4     5  ar
     6     5     6  ar
     7     6     7   1
     8     7     8  ar
     9     7     9  ar
    10     8    21  ar
    11     9    10  ar
    12    10    11  ar
    13    10    20  ar
    14    11    12  ar
    15    12    13   1
    16    12    18  ar
    17    13    14  am
    18    14    15   2
    19    14    16   1
    20    16    17   2
    21    18    19  ar
    22    19    20  ar
    23    20    21  ar
    24    21    22   1
    25    22    23   1
    26    23    24   2
    27    23    27   1
    28    24    25   1
    29    25    26   2
    30    26    27   1
    31     1    28   1
    32     2    29   1
    33     3    30   1
    34     4    31   1
    35     5    32   1
    36    11    33   1
    37    13    34   1
    38    16    35   1
    39    17    36   1
    40    17    37   1
    41    18    38   1
    42    19    39   1
    43    22    40   1
    44    24    41   1
    45    25    42   1
    46    27    43   1
@<TRIPOS>SUBSTRUCTURE
     1  G97      1

