@<TRIPOS>MOLECULE
3huc_ligand_014
    43    46
SMALL
GAST_HUCK
****
This file was generated by PARSER (from files_GN.cpp)

@<TRIPOS>ATOM
      1 CAH        23.6834   -0.2494  -19.8120 C.ar        1 G97      -0.0465
      2 CAE        24.1923    0.0990  -21.0776 C.ar        1 G97      -0.0569
      3 CAD        23.7147    1.2457  -21.7353 C.ar        1 G97      -0.0580
      4 CAF        22.7320    2.0453  -21.1267 C.ar        1 G97      -0.0569
      5 CAI        22.2358    1.7068  -19.8542 C.ar        1 G97      -0.0465
      6 CAW        22.7059    0.5561  -19.1815 C.ar        1 G97       0.0141
      7 C2         22.1911    0.2036  -17.9150 C.ar        1 G97       0.0921
      8 N1         21.9241   -1.0920  -17.6250 N.ar        1 G97      -0.2553
      9 N3         21.9425    1.1311  -16.9563 N.ar        1 G97      -0.3009
     10 C4         21.4571    0.7933  -15.7347 C.ar        1 G97       0.0255
     11 CAM        21.2626    1.8054  -14.7757 C.ar        1 G97      -0.0253
     12 CAU        20.7812    1.4991  -13.4835 C.ar        1 G97       0.0730
     13 NAQ        20.6354    2.5720  -12.6449 N.am        1 G97      -0.2295
     14 CAT        20.4576    2.6279  -11.3325 C.2         1 G97       0.2258
     15 OAB        20.3957    1.6536  -10.5983 O.2         1 G97      -0.3745
     16 CAC        20.3267    3.8377  -10.7635 C.2         1 G97       0.0150
     17 CAA        21.3743    4.6011  -10.4325 C.2         1 G97      -0.0781
     18 CAK        20.4647    0.1496  -13.1878 C.ar        1 G97      -0.0283
     19 CAL        20.6567   -0.8661  -14.1474 C.ar        1 G97      -0.0465
     20 C5         21.1666   -0.5664  -15.4324 C.ar        1 G97       0.0455
     21 C6         21.4099   -1.5318  -16.4466 C.ar        1 G97       0.1561
     22 NAR        21.1556   -2.8601  -16.2838 N.pl3       1 G97      -0.2206
     23 CAV        21.3259   -3.8773  -17.1885 C.2         1 G97       0.1818
     24 CAJ        21.7549   -3.9077  -18.5173 C.2         1 G97      -0.0280
     25 CAG        21.7059   -5.2298  -18.9118 C.2         1 G97      -0.0243
     26 NAS        21.2782   -5.9610  -17.8714 N.2         1 G97      -0.2412
     27 NAN        21.0641   -5.1598  -16.8717 N.pl3       1 G97      -0.2006
     28 H1         24.0513   -1.0842  -19.3463 H           1 G97       0.0660
     29 H2         24.9148   -0.4749  -21.5158 H           1 G97       0.0628
     30 H3         24.0813    1.4965  -22.6567 H           1 G97       0.0649
     31 H4         22.3767    2.8718  -21.6113 H           1 G97       0.0628
     32 H5         21.5072    2.2933  -19.4372 H           1 G97       0.0660
     33 H6         21.4873    2.7758  -15.0190 H           1 G97       0.0447
     34 H7         20.7098    3.4366  -13.0864 H           1 G97       0.2290
     35 H8         19.4057    4.1607  -10.5654 H           1 G97       0.0698
     36 H9         21.2298    5.4865  -10.0103 H           1 G97       0.0686
     37 H10        22.3102    4.3004  -10.5959 H           1 G97       0.0686
     38 H11        20.0743   -0.1134  -12.2809 H           1 G97       0.0570
     39 H12        20.4209   -1.8283  -13.8946 H           1 G97       0.0666
     40 H13        20.8030   -3.1203  -15.4173 H           1 G97       0.2279
     41 H14        22.0503   -3.1426  -19.1266 H           1 G97       0.0216
     42 H15        21.9536   -5.5800  -19.8389 H           1 G97       0.0607
     43 H16        20.7431   -5.4525  -16.0058 H           1 G97       0.2521
@<TRIPOS>BOND
     1     1     2  ar
     2     1     6  ar
     3     2     3  ar
     4     3     4  ar
     5     4     5  ar
     6     5     6  ar
     7     6     7   1
     8     7     8  ar
     9     7     9  ar
    10     8    21  ar
    11     9    10  ar
    12    10    11  ar
    13    10    20  ar
    14    11    12  ar
    15    12    13   1
    16    12    18  ar
    17    13    14  am
    18    14    15   2
    19    14    16   1
    20    16    17   2
    21    18    19  ar
    22    19    20  ar
    23    20    21  ar
    24    21    22   1
    25    22    23   1
    26    23    24   2
    27    23    27   1
    28    24    25   1
    29    25    26   2
    30    26    27   1
    31     1    28   1
    32     2    29   1
    33     3    30   1
    34     4    31   1
    35     5    32   1
    36    11    33   1
    37    13    34   1
    38    16    35   1
    39    17    36   1
    40    17    37   1
    41    18    38   1
    42    19    39   1
    43    22    40   1
    44    24    41   1
    45    25    42   1
    46    27    43   1
@<TRIPOS>SUBSTRUCTURE
     1  G97      1

