@<TRIPOS>MOLECULE
3huc_ligand_037
    43    46
SMALL
GAST_HUCK
****
This file was generated by PARSER (from files_GN.cpp)

@<TRIPOS>ATOM
      1 CAH        15.5050    1.7736  -14.3153 C.ar        1 G97      -0.0465
      2 CAE        14.5589    2.5707  -14.9879 C.ar        1 G97      -0.0569
      3 CAD        14.7054    3.9678  -15.0053 C.ar        1 G97      -0.0580
      4 CAF        15.7988    4.5672  -14.3516 C.ar        1 G97      -0.0569
      5 CAI        16.7548    3.7640  -13.7006 C.ar        1 G97      -0.0465
      6 CAW        16.6343    2.3514  -13.6741 C.ar        1 G97       0.0141
      7 C2         17.6100    1.5381  -13.0351 C.ar        1 G97       0.0921
      8 N1         17.9626    0.3395  -13.5560 N.ar        1 G97      -0.2553
      9 N3         18.2457    1.9266  -11.9040 N.ar        1 G97      -0.3009
     10 C4         19.1496    1.1399  -11.2670 C.ar        1 G97       0.0255
     11 CAM        19.6929    1.5939  -10.0536 C.ar        1 G97      -0.0253
     12 CAU        20.5636    0.7855   -9.3008 C.ar        1 G97       0.0730
     13 NAQ        20.9824    1.2760   -8.0938 N.am        1 G97      -0.2295
     14 CAT        22.1489    1.1836   -7.4679 C.2         1 G97       0.2258
     15 OAB        22.1869    1.7603   -6.3894 O.2         1 G97      -0.3745
     16 CAC        23.2958    0.6598   -7.9809 C.2         1 G97       0.0150
     17 CAA        24.2398    0.0341   -7.2625 C.2         1 G97      -0.0781
     18 CAK        20.8609   -0.5168   -9.7786 C.ar        1 G97      -0.0283
     19 CAL        20.3158   -0.9707  -10.9975 C.ar        1 G97      -0.0465
     20 C5         19.4875   -0.1371  -11.7914 C.ar        1 G97       0.0455
     21 C6         18.8927   -0.4981  -13.0309 C.ar        1 G97       0.1561
     22 NAR        19.0536   -1.5706  -13.8459 N.pl3       1 G97      -0.2206
     23 CAV        20.0448   -2.4848  -13.9796 C.2         1 G97       0.1818
     24 CAJ        19.8713   -3.5994  -14.7993 C.2         1 G97      -0.0280
     25 CAG        21.0841   -4.2675  -14.8148 C.2         1 G97      -0.0243
     26 NAS        21.9468   -3.5807  -14.0399 N.2         1 G97      -0.2412
     27 NAN        21.3430   -2.5199  -13.5913 N.pl3       1 G97      -0.2006
     28 H1         15.3634    0.7640  -14.3176 H           1 G97       0.0660
     29 H2         13.7515    2.1337  -15.4426 H           1 G97       0.0628
     30 H3         14.0116    4.5485  -15.4869 H           1 G97       0.0649
     31 H4         15.9037    5.5815  -14.3680 H           1 G97       0.0628
     32 H5         17.5369    4.2326  -13.2420 H           1 G97       0.0660
     33 H6         19.4266    2.5167   -9.7007 H           1 G97       0.0447
     34 H7         20.3254    1.8326   -7.6392 H           1 G97       0.2290
     35 H8         23.4643    0.7675   -8.9532 H           1 G97       0.0698
     36 H9         25.0703   -0.2850   -7.7019 H           1 G97       0.0686
     37 H10        24.1313   -0.1148   -6.2804 H           1 G97       0.0686
     38 H11        21.4305   -1.1589   -9.2187 H           1 G97       0.0570
     39 H12        20.4659   -1.9452  -11.2722 H           1 G97       0.0666
     40 H13        18.3494   -1.6645  -14.5186 H           1 G97       0.2279
     41 H14        19.0254   -3.8671  -15.3108 H           1 G97       0.0216
     42 H15        21.2920   -5.1261  -15.3174 H           1 G97       0.0607
     43 H16        21.7814   -1.8368  -13.0570 H           1 G97       0.2521
@<TRIPOS>BOND
     1     1     2  ar
     2     1     6  ar
     3     2     3  ar
     4     3     4  ar
     5     4     5  ar
     6     5     6  ar
     7     6     7   1
     8     7     8  ar
     9     7     9  ar
    10     8    21  ar
    11     9    10  ar
    12    10    11  ar
    13    10    20  ar
    14    11    12  ar
    15    12    13   1
    16    12    18  ar
    17    13    14  am
    18    14    15   2
    19    14    16   1
    20    16    17   2
    21    18    19  ar
    22    19    20  ar
    23    20    21  ar
    24    21    22   1
    25    22    23   1
    26    23    24   2
    27    23    27   1
    28    24    25   1
    29    25    26   2
    30    26    27   1
    31     1    28   1
    32     2    29   1
    33     3    30   1
    34     4    31   1
    35     5    32   1
    36    11    33   1
    37    13    34   1
    38    16    35   1
    39    17    36   1
    40    17    37   1
    41    18    38   1
    42    19    39   1
    43    22    40   1
    44    24    41   1
    45    25    42   1
    46    27    43   1
@<TRIPOS>SUBSTRUCTURE
     1  G97      1

