@<TRIPOS>MOLECULE
3huc_ligand_063
    43    46
SMALL
GAST_HUCK
****
This file was generated by PARSER (from files_GN.cpp)

@<TRIPOS>ATOM
      1 CAH        18.6918   -0.7845  -13.7645 C.ar        1 G97      -0.0465
      2 CAE        19.1696    0.5302  -13.9352 C.ar        1 G97      -0.0569
      3 CAD        20.5415    0.7654  -14.1101 C.ar        1 G97      -0.0580
      4 CAF        21.4385   -0.3169  -14.1234 C.ar        1 G97      -0.0569
      5 CAI        20.9645   -1.6279  -13.9458 C.ar        1 G97      -0.0465
      6 CAW        19.5796   -1.8883  -13.7582 C.ar        1 G97       0.0141
      7 C2         19.1075   -3.2136  -13.5232 C.ar        1 G97       0.0921
      8 N1         19.9791   -4.2523  -13.4375 N.ar        1 G97      -0.2553
      9 N3         17.7988   -3.4901  -13.2653 N.ar        1 G97      -0.3009
     10 C4         17.3420   -4.7458  -13.0285 C.ar        1 G97       0.0255
     11 CAM        15.9712   -4.9602  -12.7885 C.ar        1 G97      -0.0253
     12 CAU        15.4781   -6.2586  -12.5396 C.ar        1 G97       0.0730
     13 NAQ        14.1406   -6.3646  -12.2835 N.am        1 G97      -0.2295
     14 CAT        13.5145   -7.2484  -11.5134 C.2         1 G97       0.2258
     15 OAB        14.0695   -8.1420  -10.8868 O.2         1 G97      -0.3745
     16 CAC        12.1901   -7.1229  -11.3560 C.2         1 G97       0.0150
     17 CAA        11.6447   -6.1656  -10.5951 C.2         1 G97      -0.0781
     18 CAK        16.3667   -7.3548  -12.6473 C.ar        1 G97      -0.0283
     19 CAL        17.7362   -7.1421  -12.8909 C.ar        1 G97      -0.0465
     20 C5         18.2531   -5.8342  -13.0048 C.ar        1 G97       0.0455
     21 C6         19.6335   -5.5279  -13.1331 C.ar        1 G97       0.1561
     22 NAR        20.7122   -6.2991  -12.8488 N.pl3       1 G97      -0.2206
     23 CAV        20.8170   -6.9208  -11.6434 C.2         1 G97       0.1818
     24 CAJ        21.6406   -6.4360  -10.6334 C.2         1 G97      -0.0280
     25 CAG        21.3778   -7.2141   -9.5240 C.2         1 G97      -0.0243
     26 NAS        20.4630   -8.1361   -9.8557 N.2         1 G97      -0.2412
     27 NAN        20.1483   -7.9568  -11.1033 N.pl3       1 G97      -0.2006
     28 H1         17.6872   -0.9208  -13.6367 H           1 G97       0.0660
     29 H2         18.5139    1.3130  -13.9412 H           1 G97       0.0628
     30 H3         20.8926    1.7209  -14.2178 H           1 G97       0.0649
     31 H4         22.4405   -0.1469  -14.2486 H           1 G97       0.0628
     32 H5         21.6474   -2.3901  -13.9548 H           1 G97       0.0660
     33 H6         15.3328   -4.1567  -12.7590 H           1 G97       0.0447
     34 H7         13.5892   -5.6513  -12.6516 H           1 G97       0.2290
     35 H8         11.6024   -7.7843  -11.8143 H           1 G97       0.0698
     36 H9         10.6607   -6.0840  -10.5249 H           1 G97       0.0686
     37 H10        12.2090   -5.5178  -10.0914 H           1 G97       0.0686
     38 H11        16.0169   -8.3143  -12.5854 H           1 G97       0.0570
     39 H12        18.3438   -7.9484  -13.0501 H           1 G97       0.0666
     40 H13        21.5473   -5.8967  -13.1351 H           1 G97       0.2279
     41 H14        22.2589   -5.6260  -10.6703 H           1 G97       0.0216
     42 H15        21.7784   -7.0919   -8.5976 H           1 G97       0.0607
     43 H16        19.4959   -8.4988  -11.5677 H           1 G97       0.2521
@<TRIPOS>BOND
     1     1     2  ar
     2     1     6  ar
     3     2     3  ar
     4     3     4  ar
     5     4     5  ar
     6     5     6  ar
     7     6     7   1
     8     7     8  ar
     9     7     9  ar
    10     8    21  ar
    11     9    10  ar
    12    10    11  ar
    13    10    20  ar
    14    11    12  ar
    15    12    13   1
    16    12    18  ar
    17    13    14  am
    18    14    15   2
    19    14    16   1
    20    16    17   2
    21    18    19  ar
    22    19    20  ar
    23    20    21  ar
    24    21    22   1
    25    22    23   1
    26    23    24   2
    27    23    27   1
    28    24    25   1
    29    25    26   2
    30    26    27   1
    31     1    28   1
    32     2    29   1
    33     3    30   1
    34     4    31   1
    35     5    32   1
    36    11    33   1
    37    13    34   1
    38    16    35   1
    39    17    36   1
    40    17    37   1
    41    18    38   1
    42    19    39   1
    43    22    40   1
    44    24    41   1
    45    25    42   1
    46    27    43   1
@<TRIPOS>SUBSTRUCTURE
     1  G97      1

