@<TRIPOS>MOLECULE
3huc_ligand_020
    43    46
SMALL
GAST_HUCK
****
This file was generated by PARSER (from files_GN.cpp)

@<TRIPOS>ATOM
      1 CAH        20.5553    2.6869  -11.4052 C.ar        1 G97      -0.0465
      2 CAE        20.3661    4.0543  -11.1288 C.ar        1 G97      -0.0569
      3 CAD        21.0420    4.6547  -10.0525 C.ar        1 G97      -0.0580
      4 CAF        21.8999    3.8836   -9.2505 C.ar        1 G97      -0.0569
      5 CAI        22.0886    2.5170   -9.5312 C.ar        1 G97      -0.0465
      6 CAW        21.4249    1.8858  -10.6196 C.ar        1 G97       0.0141
      7 C2         21.6086    0.4976  -10.8978 C.ar        1 G97       0.0921
      8 N1         20.9703   -0.1223  -11.9286 N.ar        1 G97      -0.2553
      9 N3         22.4556   -0.2689  -10.1634 N.ar        1 G97      -0.3009
     10 C4         22.6220   -1.5961  -10.3747 C.ar        1 G97       0.0255
     11 CAM        23.5377   -2.3083   -9.5688 C.ar        1 G97      -0.0253
     12 CAU        23.6801   -3.7065   -9.7021 C.ar        1 G97       0.0730
     13 NAQ        24.5839   -4.4786   -9.0223 N.am        1 G97      -0.2295
     14 CAT        25.7861   -4.1597   -8.5489 C.2         1 G97       0.2258
     15 OAB        26.2569   -3.0391   -8.7047 O.2         1 G97      -0.3745
     16 CAC        26.5264   -5.1380   -7.9547 C.2         1 G97       0.0150
     17 CAA        27.8112   -5.0347   -7.5734 C.2         1 G97      -0.0781
     18 CAK        22.7847   -4.3864  -10.5541 C.ar        1 G97      -0.0283
     19 CAL        21.8798   -3.6741  -11.3607 C.ar        1 G97      -0.0465
     20 C5         21.8534   -2.2627  -11.3708 C.ar        1 G97       0.0455
     21 C6         21.0785   -1.4436  -12.2438 C.ar        1 G97       0.1561
     22 NAR        20.4968   -1.6929  -13.4511 N.pl3       1 G97      -0.2206
     23 CAV        20.7316   -2.6392  -14.4076 C.2         1 G97       0.1818
     24 CAJ        20.7702   -2.2835  -15.7511 C.2         1 G97      -0.0280
     25 CAG        21.0167   -3.4429  -16.4615 C.2         1 G97      -0.0243
     26 NAS        21.0999   -4.4490  -15.5847 N.2         1 G97      -0.2412
     27 NAN        20.9322   -3.9706  -14.3896 N.pl3       1 G97      -0.2006
     28 H1         20.0389    2.2830  -12.1902 H           1 G97       0.0660
     29 H2         19.7336    4.6127  -11.7068 H           1 G97       0.0628
     30 H3         20.9109    5.6509   -9.8553 H           1 G97       0.0649
     31 H4         22.3859    4.3202   -8.4628 H           1 G97       0.0628
     32 H5         22.7179    1.9876   -8.9239 H           1 G97       0.0660
     33 H6         24.0828   -1.7999   -8.8710 H           1 G97       0.0447
     34 H7         24.3492   -5.4159   -8.9438 H           1 G97       0.2290
     35 H8         26.0936   -6.0203   -7.7917 H           1 G97       0.0698
     36 H9         28.2725   -5.8110   -7.1580 H           1 G97       0.0686
     37 H10        28.3316   -4.1980   -7.7055 H           1 G97       0.0686
     38 H11        22.7844   -5.4092  -10.6052 H           1 G97       0.0570
     39 H12        21.1829   -4.2078  -11.8718 H           1 G97       0.0666
     40 H13        20.0385   -0.9152  -13.8086 H           1 G97       0.2279
     41 H14        20.6639   -1.3474  -16.1407 H           1 G97       0.0216
     42 H15        21.1216   -3.5218  -17.4718 H           1 G97       0.0607
     43 H16        20.9167   -4.5417  -13.6118 H           1 G97       0.2521
@<TRIPOS>BOND
     1     1     2  ar
     2     1     6  ar
     3     2     3  ar
     4     3     4  ar
     5     4     5  ar
     6     5     6  ar
     7     6     7   1
     8     7     8  ar
     9     7     9  ar
    10     8    21  ar
    11     9    10  ar
    12    10    11  ar
    13    10    20  ar
    14    11    12  ar
    15    12    13   1
    16    12    18  ar
    17    13    14  am
    18    14    15   2
    19    14    16   1
    20    16    17   2
    21    18    19  ar
    22    19    20  ar
    23    20    21  ar
    24    21    22   1
    25    22    23   1
    26    23    24   2
    27    23    27   1
    28    24    25   1
    29    25    26   2
    30    26    27   1
    31     1    28   1
    32     2    29   1
    33     3    30   1
    34     4    31   1
    35     5    32   1
    36    11    33   1
    37    13    34   1
    38    16    35   1
    39    17    36   1
    40    17    37   1
    41    18    38   1
    42    19    39   1
    43    22    40   1
    44    24    41   1
    45    25    42   1
    46    27    43   1
@<TRIPOS>SUBSTRUCTURE
     1  G97      1

