@<TRIPOS>MOLECULE
3huc_ligand_039
    43    46
SMALL
GAST_HUCK
****
This file was generated by PARSER (from files_GN.cpp)

@<TRIPOS>ATOM
      1 CAH        19.4203   -0.4125  -12.5555 C.ar        1 G97      -0.0465
      2 CAE        18.4657   -0.0588  -13.5215 C.ar        1 G97      -0.0569
      3 CAD        18.2671    1.2956  -13.8519 C.ar        1 G97      -0.0580
      4 CAF        19.0414    2.2937  -13.2236 C.ar        1 G97      -0.0569
      5 CAI        20.0042    1.9385  -12.2608 C.ar        1 G97      -0.0465
      6 CAW        20.2035    0.5793  -11.9043 C.ar        1 G97       0.0141
      7 C2         21.1804    0.2154  -10.9456 C.ar        1 G97       0.0921
      8 N1         22.0333   -0.8051  -11.2111 N.ar        1 G97      -0.2553
      9 N3         21.2777    0.8190   -9.7405 N.ar        1 G97      -0.3009
     10 C4         22.2223    0.4674   -8.8291 C.ar        1 G97       0.0255
     11 CAM        22.2386    1.1254   -7.5804 C.ar        1 G97      -0.0253
     12 CAU        23.1907    0.7886   -6.6002 C.ar        1 G97       0.0730
     13 NAQ        23.0955    1.3848   -5.3695 N.am        1 G97      -0.2295
     14 CAT        23.3915    0.8438   -4.1871 C.2         1 G97       0.2258
     15 OAB        23.7187   -0.3375   -4.0739 O.2         1 G97      -0.3745
     16 CAC        23.1074    1.5240   -3.0544 C.2         1 G97       0.0150
     17 CAA        23.6598    2.7116   -2.7452 C.2         1 G97      -0.0781
     18 CAK        24.2245   -0.1127   -6.9573 C.ar        1 G97      -0.0283
     19 CAL        24.2288   -0.7478   -8.2133 C.ar        1 G97      -0.0465
     20 C5         23.1658   -0.5543   -9.1349 C.ar        1 G97       0.0455
     21 C6         22.9953   -1.2421  -10.3726 C.ar        1 G97       0.1561
     22 NAR        23.6128   -2.3308  -10.8976 N.pl3       1 G97      -0.2206
     23 CAV        24.2175   -3.3557  -10.2583 C.2         1 G97       0.1818
     24 CAJ        24.9022   -4.4070  -10.8601 C.2         1 G97      -0.0280
     25 CAG        25.2449   -5.2837   -9.8299 C.2         1 G97      -0.0243
     26 NAS        24.7468   -4.7783   -8.6784 N.2         1 G97      -0.2412
     27 NAN        24.1340   -3.6600   -8.9419 N.pl3       1 G97      -0.2006
     28 H1         19.5438   -1.4021  -12.3297 H           1 G97       0.0660
     29 H2         17.8881   -0.7795  -13.9609 H           1 G97       0.0628
     30 H3         17.5725    1.5500  -14.5520 H           1 G97       0.0649
     31 H4         18.9089    3.2734  -13.4764 H           1 G97       0.0628
     32 H5         20.5539    2.6763  -11.8150 H           1 G97       0.0660
     33 H6         21.5248    1.8329   -7.3696 H           1 G97       0.0447
     34 H7         22.6671    2.2628   -5.3577 H           1 G97       0.2290
     35 H8         22.5155    1.1042   -2.3744 H           1 G97       0.0698
     36 H9         23.4203    3.1667   -1.8960 H           1 G97       0.0686
     37 H10        24.2912    3.1673   -3.3542 H           1 G97       0.0686
     38 H11        24.9970   -0.2930   -6.3134 H           1 G97       0.0570
     39 H12        25.0384   -1.3303   -8.4621 H           1 G97       0.0666
     40 H13        23.4402   -2.4804  -11.8409 H           1 G97       0.2279
     41 H14        25.0843   -4.5216  -11.8640 H           1 G97       0.0216
     42 H15        25.7788   -6.1533   -9.9197 H           1 G97       0.0607
     43 H16        23.6558   -3.1199   -8.2773 H           1 G97       0.2521
@<TRIPOS>BOND
     1     1     2  ar
     2     1     6  ar
     3     2     3  ar
     4     3     4  ar
     5     4     5  ar
     6     5     6  ar
     7     6     7   1
     8     7     8  ar
     9     7     9  ar
    10     8    21  ar
    11     9    10  ar
    12    10    11  ar
    13    10    20  ar
    14    11    12  ar
    15    12    13   1
    16    12    18  ar
    17    13    14  am
    18    14    15   2
    19    14    16   1
    20    16    17   2
    21    18    19  ar
    22    19    20  ar
    23    20    21  ar
    24    21    22   1
    25    22    23   1
    26    23    24   2
    27    23    27   1
    28    24    25   1
    29    25    26   2
    30    26    27   1
    31     1    28   1
    32     2    29   1
    33     3    30   1
    34     4    31   1
    35     5    32   1
    36    11    33   1
    37    13    34   1
    38    16    35   1
    39    17    36   1
    40    17    37   1
    41    18    38   1
    42    19    39   1
    43    22    40   1
    44    24    41   1
    45    25    42   1
    46    27    43   1
@<TRIPOS>SUBSTRUCTURE
     1  G97      1

