@<TRIPOS>MOLECULE
3huc_ligand_018
    43    46
SMALL
GAST_HUCK
****
This file was generated by PARSER (from files_GN.cpp)

@<TRIPOS>ATOM
      1 CAH        25.9658   -4.1555   -8.4826 C.ar        1 G97      -0.0465
      2 CAE        27.2571   -4.6801   -8.6880 C.ar        1 G97      -0.0569
      3 CAD        27.9481   -4.4007   -9.8817 C.ar        1 G97      -0.0580
      4 CAF        27.3496   -3.5937  -10.8657 C.ar        1 G97      -0.0569
      5 CAI        26.0634   -3.0616  -10.6566 C.ar        1 G97      -0.0465
      6 CAW        25.3605   -3.3324   -9.4606 C.ar        1 G97       0.0141
      7 C2         24.0779   -2.7876   -9.2616 C.ar        1 G97       0.0921
      8 N1         22.9924   -3.5948   -9.1925 N.ar        1 G97      -0.2553
      9 N3         23.8951   -1.4469   -9.1876 N.ar        1 G97      -0.3009
     10 C4         22.6617   -0.8979   -9.0391 C.ar        1 G97       0.0255
     11 CAM        22.5386    0.5008   -8.9404 C.ar        1 G97      -0.0253
     12 CAU        21.2684    1.1155   -8.8259 C.ar        1 G97       0.0730
     13 NAQ        21.0674    2.4677   -8.7054 N.am        1 G97      -0.2295
     14 CAT        21.8378    3.4764   -9.1014 C.2         1 G97       0.2258
     15 OAB        22.8610    3.3210   -9.7541 O.2         1 G97      -0.3745
     16 CAC        21.4954    4.7437   -8.7952 C.2         1 G97       0.0150
     17 CAA        20.3900    5.3456   -9.2497 C.2         1 G97      -0.0781
     18 CAK        20.1292    0.2835   -8.7668 C.ar        1 G97      -0.0283
     19 CAL        20.2436   -1.1175   -8.8483 C.ar        1 G97      -0.0465
     20 C5         21.5113   -1.7323   -8.9839 C.ar        1 G97       0.0455
     21 C6         21.7179   -3.1355   -9.0647 C.ar        1 G97       0.1561
     22 NAR        20.6753   -4.0045   -9.0272 N.pl3       1 G97      -0.2206
     23 CAV        20.6864   -5.3621   -9.1172 C.2         1 G97       0.1818
     24 CAJ        21.7107   -6.2855   -9.3061 C.2         1 G97      -0.0280
     25 CAG        21.1041   -7.5301   -9.3060 C.2         1 G97      -0.0243
     26 NAS        19.7894   -7.3546   -9.1145 N.2         1 G97      -0.2412
     27 NAN        19.5560   -6.0826   -9.0217 N.pl3       1 G97      -0.2006
     28 H1         25.4849   -4.3610   -7.6048 H           1 G97       0.0660
     29 H2         27.6946   -5.2613   -7.9685 H           1 G97       0.0628
     30 H3         28.8841   -4.7830  -10.0340 H           1 G97       0.0649
     31 H4         27.8500   -3.3921  -11.7337 H           1 G97       0.0628
     32 H5         25.6382   -2.4895  -11.3915 H           1 G97       0.0660
     33 H6         23.3895    1.0631   -8.9184 H           1 G97       0.0447
     34 H7         20.2262    2.7245   -8.2927 H           1 G97       0.2290
     35 H8         22.1222    5.2694   -8.2292 H           1 G97       0.0698
     36 H9         20.2020    6.2882   -9.0000 H           1 G97       0.0686
     37 H10        19.7479    4.8765   -9.8459 H           1 G97       0.0686
     38 H11        19.1976    0.6964   -8.6665 H           1 G97       0.0570
     39 H12        19.3885   -1.6761   -8.8051 H           1 G97       0.0666
     40 H13        19.7963   -3.6107   -8.9278 H           1 G97       0.2279
     41 H14        22.7099   -6.1097   -9.4168 H           1 G97       0.0216
     42 H15        21.5680   -8.4331   -9.4118 H           1 G97       0.0607
     43 H16        18.6735   -5.7040   -8.8877 H           1 G97       0.2521
@<TRIPOS>BOND
     1     1     2  ar
     2     1     6  ar
     3     2     3  ar
     4     3     4  ar
     5     4     5  ar
     6     5     6  ar
     7     6     7   1
     8     7     8  ar
     9     7     9  ar
    10     8    21  ar
    11     9    10  ar
    12    10    11  ar
    13    10    20  ar
    14    11    12  ar
    15    12    13   1
    16    12    18  ar
    17    13    14  am
    18    14    15   2
    19    14    16   1
    20    16    17   2
    21    18    19  ar
    22    19    20  ar
    23    20    21  ar
    24    21    22   1
    25    22    23   1
    26    23    24   2
    27    23    27   1
    28    24    25   1
    29    25    26   2
    30    26    27   1
    31     1    28   1
    32     2    29   1
    33     3    30   1
    34     4    31   1
    35     5    32   1
    36    11    33   1
    37    13    34   1
    38    16    35   1
    39    17    36   1
    40    17    37   1
    41    18    38   1
    42    19    39   1
    43    22    40   1
    44    24    41   1
    45    25    42   1
    46    27    43   1
@<TRIPOS>SUBSTRUCTURE
     1  G97      1

