@<TRIPOS>MOLECULE
3huc_ligand_005
    43    46
SMALL
GAST_HUCK
****
This file was generated by PARSER (from files_GN.cpp)

@<TRIPOS>ATOM
      1 CAH        25.3070   -1.7458  -20.8191 C.ar        1 G97      -0.0465
      2 CAE        26.0264   -2.8461  -21.3268 C.ar        1 G97      -0.0569
      3 CAD        25.6023   -4.1576  -21.0386 C.ar        1 G97      -0.0580
      4 CAF        24.4843   -4.3646  -20.2144 C.ar        1 G97      -0.0569
      5 CAI        23.7743   -3.2646  -19.6890 C.ar        1 G97      -0.0465
      6 CAW        24.1701   -1.9383  -20.0004 C.ar        1 G97       0.0141
      7 C2         23.4600   -0.8259  -19.4891 C.ar        1 G97       0.0921
      8 N1         23.1776   -0.7113  -18.1691 N.ar        1 G97      -0.2553
      9 N3         23.0410    0.1687  -20.3107 N.ar        1 G97      -0.3009
     10 C4         22.3715    1.2539  -19.8509 C.ar        1 G97       0.0255
     11 CAM        21.9016    2.2026  -20.7874 C.ar        1 G97      -0.0253
     12 CAU        21.1941    3.3549  -20.3781 C.ar        1 G97       0.0730
     13 NAQ        20.6885    4.1588  -21.3744 N.am        1 G97      -0.2295
     14 CAT        20.1413    5.3709  -21.3506 C.2         1 G97       0.2258
     15 OAB        20.1316    6.0675  -20.3423 O.2         1 G97      -0.3745
     16 CAC        19.6314    5.8744  -22.5078 C.2         1 G97       0.0150
     17 CAA        18.4502    6.5022  -22.6157 C.2         1 G97      -0.0781
     18 CAK        21.0186    3.5522  -18.9894 C.ar        1 G97      -0.0283
     19 CAL        21.4929    2.6031  -18.0589 C.ar        1 G97      -0.0465
     20 C5         22.1231    1.4068  -18.4535 C.ar        1 G97       0.0455
     21 C6         22.5382    0.3445  -17.5877 C.ar        1 G97       0.1561
     22 NAR        22.4269    0.0873  -16.2554 N.pl3       1 G97      -0.2206
     23 CAV        21.8394    0.6102  -15.1393 C.2         1 G97       0.1818
     24 CAJ        21.8754   -0.1418  -13.9663 C.2         1 G97      -0.0280
     25 CAG        21.1971    0.5865  -12.9983 C.2         1 G97      -0.0243
     26 NAS        20.7641    1.7220  -13.5648 N.2         1 G97      -0.2412
     27 NAN        21.1472    1.7267  -14.8108 N.pl3       1 G97      -0.2006
     28 H1         25.6411   -0.8012  -21.0367 H           1 G97       0.0660
     29 H2         26.8524   -2.6939  -21.9032 H           1 G97       0.0628
     30 H3         26.1094   -4.9533  -21.4280 H           1 G97       0.0649
     31 H4         24.1793   -5.3165  -20.0009 H           1 G97       0.0628
     32 H5         22.9586   -3.4399  -19.0985 H           1 G97       0.0660
     33 H6         22.0709    2.0360  -21.7850 H           1 G97       0.0447
     34 H7         20.7161    3.7575  -22.2608 H           1 G97       0.2290
     35 H8         20.1443    5.7314  -23.3525 H           1 G97       0.0698
     36 H9         18.1379    6.8291  -23.4991 H           1 G97       0.0686
     37 H10        17.8685    6.6552  -21.8262 H           1 G97       0.0686
     38 H11        20.5358    4.3767  -18.6339 H           1 G97       0.0570
     39 H12        21.3787    2.8162  -17.0930 H           1 G97       0.0666
     40 H13        22.8643   -0.7530  -16.0305 H           1 G97       0.2279
     41 H14        22.3027   -1.0632  -13.8321 H           1 G97       0.0216
     42 H15        21.0543    0.3085  -12.0264 H           1 G97       0.0607
     43 H16        20.9315    2.4578  -15.3912 H           1 G97       0.2521
@<TRIPOS>BOND
     1     1     2  ar
     2     1     6  ar
     3     2     3  ar
     4     3     4  ar
     5     4     5  ar
     6     5     6  ar
     7     6     7   1
     8     7     8  ar
     9     7     9  ar
    10     8    21  ar
    11     9    10  ar
    12    10    11  ar
    13    10    20  ar
    14    11    12  ar
    15    12    13   1
    16    12    18  ar
    17    13    14  am
    18    14    15   2
    19    14    16   1
    20    16    17   2
    21    18    19  ar
    22    19    20  ar
    23    20    21  ar
    24    21    22   1
    25    22    23   1
    26    23    24   2
    27    23    27   1
    28    24    25   1
    29    25    26   2
    30    26    27   1
    31     1    28   1
    32     2    29   1
    33     3    30   1
    34     4    31   1
    35     5    32   1
    36    11    33   1
    37    13    34   1
    38    16    35   1
    39    17    36   1
    40    17    37   1
    41    18    38   1
    42    19    39   1
    43    22    40   1
    44    24    41   1
    45    25    42   1
    46    27    43   1
@<TRIPOS>SUBSTRUCTURE
     1  G97      1

