@<TRIPOS>MOLECULE
3huc_ligand_040
    43    46
SMALL
GAST_HUCK
****
This file was generated by PARSER (from files_GN.cpp)

@<TRIPOS>ATOM
      1 CAH        20.6405    1.4745  -13.5312 C.ar        1 G97      -0.0465
      2 CAE        20.5395    2.4261  -12.5007 C.ar        1 G97      -0.0569
      3 CAD        20.8678    2.0704  -11.1818 C.ar        1 G97      -0.0580
      4 CAF        21.2971    0.7640  -10.8920 C.ar        1 G97      -0.0569
      5 CAI        21.3842   -0.1927  -11.9202 C.ar        1 G97      -0.0465
      6 CAW        21.0667    0.1528  -13.2571 C.ar        1 G97       0.0141
      7 C2         21.1673   -0.8030  -14.2974 C.ar        1 G97       0.0921
      8 N1         21.4348   -0.4302  -15.5732 N.ar        1 G97      -0.2553
      9 N3         20.9976   -2.1259  -14.0520 N.ar        1 G97      -0.3009
     10 C4         21.0527   -3.0596  -15.0318 C.ar        1 G97       0.0255
     11 CAM        20.8424   -4.4071  -14.6973 C.ar        1 G97      -0.0253
     12 CAU        20.8244   -5.4039  -15.6968 C.ar        1 G97       0.0730
     13 NAQ        20.5652   -6.7287  -15.4530 N.am        1 G97      -0.2295
     14 CAT        19.7849   -7.2737  -14.5256 C.2         1 G97       0.2258
     15 OAB        19.1065   -6.5855  -13.7703 O.2         1 G97      -0.3745
     16 CAC        19.6382   -8.6240  -14.4850 C.2         1 G97       0.0150
     17 CAA        19.3621   -9.3256  -13.3802 C.2         1 G97      -0.0781
     18 CAK        21.1023   -5.0228  -17.0265 C.ar        1 G97      -0.0283
     19 CAL        21.3350   -3.6771  -17.3647 C.ar        1 G97      -0.0465
     20 C5         21.3030   -2.6678  -16.3734 C.ar        1 G97       0.0455
     21 C6         21.5303   -1.2880  -16.6206 C.ar        1 G97       0.1561
     22 NAR        21.8732   -0.8224  -17.8497 N.pl3       1 G97      -0.2206
     23 CAV        22.1985    0.4432  -18.2374 C.2         1 G97       0.1818
     24 CAJ        22.2528    1.6659  -17.5727 C.2         1 G97      -0.0280
     25 CAG        22.6916    2.5879  -18.5065 C.2         1 G97      -0.0243
     26 NAS        22.8845    1.9458  -19.6677 N.2         1 G97      -0.2412
     27 NAN        22.5908    0.6948  -19.4963 N.pl3       1 G97      -0.2006
     28 H1         20.3845    1.7538  -14.4818 H           1 G97       0.0660
     29 H2         20.2287    3.3757  -12.7146 H           1 G97       0.0628
     30 H3         20.7978    2.7637  -10.4344 H           1 G97       0.0649
     31 H4         21.5529    0.5101   -9.9358 H           1 G97       0.0628
     32 H5         21.7090   -1.1343  -11.6848 H           1 G97       0.0660
     33 H6         20.7101   -4.6555  -13.7140 H           1 G97       0.0447
     34 H7         20.9482   -7.3523  -16.0918 H           1 G97       0.2290
     35 H8         19.7772   -9.1381  -15.3265 H           1 G97       0.0698
     36 H9         19.3012  -10.3167  -13.4160 H           1 G97       0.0686
     37 H10        19.2236   -8.8820  -12.5015 H           1 G97       0.0686
     38 H11        21.1074   -5.7271  -17.7684 H           1 G97       0.0570
     39 H12        21.5214   -3.4473  -18.3398 H           1 G97       0.0666
     40 H13        21.9475   -1.4907  -18.5439 H           1 G97       0.2279
     41 H14        22.0299    1.8749  -16.6006 H           1 G97       0.0216
     42 H15        22.8454    3.5834  -18.3449 H           1 G97       0.0607
     43 H16        22.6525    0.0188  -20.1899 H           1 G97       0.2521
@<TRIPOS>BOND
     1     1     2  ar
     2     1     6  ar
     3     2     3  ar
     4     3     4  ar
     5     4     5  ar
     6     5     6  ar
     7     6     7   1
     8     7     8  ar
     9     7     9  ar
    10     8    21  ar
    11     9    10  ar
    12    10    11  ar
    13    10    20  ar
    14    11    12  ar
    15    12    13   1
    16    12    18  ar
    17    13    14  am
    18    14    15   2
    19    14    16   1
    20    16    17   2
    21    18    19  ar
    22    19    20  ar
    23    20    21  ar
    24    21    22   1
    25    22    23   1
    26    23    24   2
    27    23    27   1
    28    24    25   1
    29    25    26   2
    30    26    27   1
    31     1    28   1
    32     2    29   1
    33     3    30   1
    34     4    31   1
    35     5    32   1
    36    11    33   1
    37    13    34   1
    38    16    35   1
    39    17    36   1
    40    17    37   1
    41    18    38   1
    42    19    39   1
    43    22    40   1
    44    24    41   1
    45    25    42   1
    46    27    43   1
@<TRIPOS>SUBSTRUCTURE
     1  G97      1

