@<TRIPOS>MOLECULE
3huc_ligand_053
    43    46
SMALL
GAST_HUCK
****
This file was generated by PARSER (from files_GN.cpp)

@<TRIPOS>ATOM
      1 CAH        22.3558    0.0994  -15.5361 C.ar        1 G97      -0.0465
      2 CAE        23.0206    0.4772  -16.7174 C.ar        1 G97      -0.0569
      3 CAD        22.8379    1.7653  -17.2484 C.ar        1 G97      -0.0580
      4 CAF        21.9738    2.6713  -16.6093 C.ar        1 G97      -0.0569
      5 CAI        21.2828    2.2837  -15.4462 C.ar        1 G97      -0.0465
      6 CAW        21.4687    0.9939  -14.8883 C.ar        1 G97       0.0141
      7 C2         20.7148    0.5700  -13.7668 C.ar        1 G97       0.0921
      8 N1         21.2886    0.2281  -12.5855 N.ar        1 G97      -0.2553
      9 N3         19.3780    0.4181  -13.8750 N.ar        1 G97      -0.3009
     10 C4         18.6263   -0.1023  -12.8830 C.ar        1 G97       0.0255
     11 CAM        17.2566   -0.2904  -13.1407 C.ar        1 G97      -0.0253
     12 CAU        16.4364   -0.9782  -12.2258 C.ar        1 G97       0.0730
     13 NAQ        15.1469   -1.2013  -12.6277 N.am        1 G97      -0.2295
     14 CAT        14.2600   -2.1205  -12.2528 C.2         1 G97       0.2258
     15 OAB        14.5370   -2.9765  -11.4221 O.2         1 G97      -0.3745
     16 CAC        13.0545   -2.2317  -12.8787 C.2         1 G97       0.0150
     17 CAA        12.8297   -1.9873  -14.1787 C.2         1 G97      -0.0781
     18 CAK        17.0164   -1.3998  -11.0094 C.ar        1 G97      -0.0283
     19 CAL        18.3811   -1.1700  -10.7401 C.ar        1 G97      -0.0465
     20 C5         19.2286   -0.5166  -11.6602 C.ar        1 G97       0.0455
     21 C6         20.6280   -0.2709  -11.5019 C.ar        1 G97       0.1561
     22 NAR        21.5094   -0.3892  -10.4697 N.pl3       1 G97      -0.2206
     23 CAV        21.5184   -0.7103   -9.1419 C.2         1 G97       0.1818
     24 CAJ        22.6473   -0.4090   -8.3863 C.2         1 G97      -0.0280
     25 CAG        22.3989   -0.8334   -7.0931 C.2         1 G97      -0.0243
     26 NAS        21.1771   -1.3787   -7.0730 N.2         1 G97      -0.2412
     27 NAN        20.6757   -1.2991   -8.2678 N.pl3       1 G97      -0.2006
     28 H1         22.4954   -0.8494  -15.1772 H           1 G97       0.0660
     29 H2         23.6344   -0.1888  -17.1926 H           1 G97       0.0628
     30 H3         23.3304    2.0423  -18.1021 H           1 G97       0.0649
     31 H4         21.8358    3.6081  -16.9970 H           1 G97       0.0628
     32 H5         20.6476    2.9539  -15.0074 H           1 G97       0.0660
     33 H6         16.8665    0.0185  -14.0359 H           1 G97       0.0447
     34 H7         14.8637   -0.6493  -13.3729 H           1 G97       0.2290
     35 H8         12.2657   -2.5100  -12.3359 H           1 G97       0.0698
     36 H9         11.9199   -2.1039  -14.5561 H           1 G97       0.0686
     37 H10        13.5476   -1.6682  -14.7849 H           1 G97       0.0686
     38 H11        16.4591   -1.8839  -10.3057 H           1 G97       0.0570
     39 H12        18.7531   -1.5535   -9.8853 H           1 G97       0.0666
     40 H13        22.3921   -0.0951  -10.7423 H           1 G97       0.2279
     41 H14        23.5004    0.0504   -8.7090 H           1 G97       0.0216
     42 H15        23.0277   -0.7468   -6.2957 H           1 G97       0.0607
     43 H16        19.8038   -1.6515   -8.4671 H           1 G97       0.2521
@<TRIPOS>BOND
     1     1     2  ar
     2     1     6  ar
     3     2     3  ar
     4     3     4  ar
     5     4     5  ar
     6     5     6  ar
     7     6     7   1
     8     7     8  ar
     9     7     9  ar
    10     8    21  ar
    11     9    10  ar
    12    10    11  ar
    13    10    20  ar
    14    11    12  ar
    15    12    13   1
    16    12    18  ar
    17    13    14  am
    18    14    15   2
    19    14    16   1
    20    16    17   2
    21    18    19  ar
    22    19    20  ar
    23    20    21  ar
    24    21    22   1
    25    22    23   1
    26    23    24   2
    27    23    27   1
    28    24    25   1
    29    25    26   2
    30    26    27   1
    31     1    28   1
    32     2    29   1
    33     3    30   1
    34     4    31   1
    35     5    32   1
    36    11    33   1
    37    13    34   1
    38    16    35   1
    39    17    36   1
    40    17    37   1
    41    18    38   1
    42    19    39   1
    43    22    40   1
    44    24    41   1
    45    25    42   1
    46    27    43   1
@<TRIPOS>SUBSTRUCTURE
     1  G97      1

