@<TRIPOS>MOLECULE
3huc_ligand_055
    43    46
SMALL
GAST_HUCK
****
This file was generated by PARSER (from files_GN.cpp)

@<TRIPOS>ATOM
      1 CAH        22.9298    2.3829  -19.6689 C.ar        1 G97      -0.0465
      2 CAE        23.5340    2.5122  -20.9321 C.ar        1 G97      -0.0569
      3 CAD        24.1429    3.7219  -21.2961 C.ar        1 G97      -0.0580
      4 CAF        24.1519    4.8006  -20.3971 C.ar        1 G97      -0.0569
      5 CAI        23.5697    4.6626  -19.1248 C.ar        1 G97      -0.0465
      6 CAW        22.9474    3.4491  -18.7375 C.ar        1 G97       0.0141
      7 C2         22.3140    3.3179  -17.4708 C.ar        1 G97       0.0921
      8 N1         22.3361    2.1459  -16.7864 N.ar        1 G97      -0.2553
      9 N3         21.6138    4.3317  -16.9160 N.ar        1 G97      -0.3009
     10 C4         20.9436    4.2078  -15.7406 C.ar        1 G97       0.0255
     11 CAM        20.2024    5.3075  -15.2774 C.ar        1 G97      -0.0253
     12 CAU        19.4320    5.2174  -14.0979 C.ar        1 G97       0.0730
     13 NAQ        18.6725    6.3011  -13.7566 N.am        1 G97      -0.2295
     14 CAT        18.2398    6.6730  -12.5556 C.2         1 G97       0.2258
     15 OAB        18.6274    6.1578  -11.5128 O.2         1 G97      -0.3745
     16 CAC        17.4194    7.7318  -12.4538 C.2         1 G97       0.0150
     17 CAA        16.1140    7.6619  -12.7696 C.2         1 G97      -0.0781
     18 CAK        19.3973    3.9765  -13.4119 C.ar        1 G97      -0.0283
     19 CAL        20.1168    2.8618  -13.8880 C.ar        1 G97      -0.0465
     20 C5         20.9365    2.9601  -15.0457 C.ar        1 G97       0.0455
     21 C6         21.7065    1.9044  -15.6070 C.ar        1 G97       0.1561
     22 NAR        21.9396    0.6179  -15.2441 N.pl3       1 G97      -0.2206
     23 CAV        21.6033   -0.1624  -14.1878 C.2         1 G97       0.1818
     24 CAJ        21.4317   -1.5300  -14.3789 C.2         1 G97      -0.0280
     25 CAG        21.1925   -2.0692  -13.1253 C.2         1 G97      -0.0243
     26 NAS        21.2531   -1.0654  -12.2282 N.2         1 G97      -0.2412
     27 NAN        21.4866    0.0439  -12.8584 N.pl3       1 G97      -0.2006
     28 H1         22.4778    1.4947  -19.4393 H           1 G97       0.0660
     29 H2         23.5064    1.7353  -21.5920 H           1 G97       0.0628
     30 H3         24.5639    3.8191  -22.2208 H           1 G97       0.0649
     31 H4         24.6051    5.6746  -20.6594 H           1 G97       0.0628
     32 H5         23.5980    5.4618  -18.4895 H           1 G97       0.0660
     33 H6         20.2197    6.1843  -15.8119 H           1 G97       0.0447
     34 H7         18.4157    6.8816  -14.4917 H           1 G97       0.2290
     35 H8         17.7842    8.5868  -12.0953 H           1 G97       0.0698
     36 H9         15.5363    8.4611  -12.6591 H           1 G97       0.0686
     37 H10        15.7021    6.8187  -13.1014 H           1 G97       0.0686
     38 H11        18.7877    3.8608  -12.5912 H           1 G97       0.0570
     39 H12        20.0005    1.9688  -13.4003 H           1 G97       0.0666
     40 H13        22.4273    0.1224  -15.9233 H           1 G97       0.2279
     41 H14        21.4704   -2.0499  -15.2666 H           1 G97       0.0216
     42 H15        21.0114   -3.0553  -12.9142 H           1 G97       0.0607
     43 H16        21.6009    0.8954  -12.4103 H           1 G97       0.2521
@<TRIPOS>BOND
     1     1     2  ar
     2     1     6  ar
     3     2     3  ar
     4     3     4  ar
     5     4     5  ar
     6     5     6  ar
     7     6     7   1
     8     7     8  ar
     9     7     9  ar
    10     8    21  ar
    11     9    10  ar
    12    10    11  ar
    13    10    20  ar
    14    11    12  ar
    15    12    13   1
    16    12    18  ar
    17    13    14  am
    18    14    15   2
    19    14    16   1
    20    16    17   2
    21    18    19  ar
    22    19    20  ar
    23    20    21  ar
    24    21    22   1
    25    22    23   1
    26    23    24   2
    27    23    27   1
    28    24    25   1
    29    25    26   2
    30    26    27   1
    31     1    28   1
    32     2    29   1
    33     3    30   1
    34     4    31   1
    35     5    32   1
    36    11    33   1
    37    13    34   1
    38    16    35   1
    39    17    36   1
    40    17    37   1
    41    18    38   1
    42    19    39   1
    43    22    40   1
    44    24    41   1
    45    25    42   1
    46    27    43   1
@<TRIPOS>SUBSTRUCTURE
     1  G97      1

