@<TRIPOS>MOLECULE
3huc_ligand_036
    43    46
SMALL
GAST_HUCK
****
This file was generated by PARSER (from files_GN.cpp)

@<TRIPOS>ATOM
      1 CAH        22.5219    5.5291  -20.4986 C.ar        1 G97      -0.0465
      2 CAE        22.3430    6.8933  -20.7909 C.ar        1 G97      -0.0569
      3 CAD        21.4033    7.6489  -20.0679 C.ar        1 G97      -0.0580
      4 CAF        20.6353    7.0361  -19.0624 C.ar        1 G97      -0.0569
      5 CAI        20.8226    5.6737  -18.7651 C.ar        1 G97      -0.0465
      6 CAW        21.7688    4.8925  -19.4776 C.ar        1 G97       0.0141
      7 C2         21.9486    3.5106  -19.1870 C.ar        1 G97       0.0921
      8 N1         22.4792    2.6620  -20.1050 N.ar        1 G97      -0.2553
      9 N3         21.5935    2.9821  -17.9878 N.ar        1 G97      -0.3009
     10 C4         21.7165    1.6622  -17.7009 C.ar        1 G97       0.0255
     11 CAM        21.2695    1.1921  -16.4502 C.ar        1 G97      -0.0253
     12 CAU        21.2546   -0.1882  -16.1489 C.ar        1 G97       0.0730
     13 NAQ        20.7148   -0.5395  -14.9341 N.am        1 G97      -0.2295
     14 CAT        20.6309   -1.6920  -14.2794 C.2         1 G97       0.2258
     15 OAB        20.0118   -1.6573  -13.2272 O.2         1 G97      -0.3745
     16 CAC        21.2330   -2.8577  -14.5980 C.2         1 G97       0.0150
     17 CAA        20.5841   -3.8960  -15.1442 C.2         1 G97      -0.0781
     18 CAK        21.6819   -1.0836  -17.1580 C.ar        1 G97      -0.0283
     19 CAL        22.1587   -0.6170  -18.3964 C.ar        1 G97      -0.0465
     20 C5         22.2284    0.7662  -18.6800 C.ar        1 G97       0.0455
     21 C6         22.6681    1.3317  -19.9109 C.ar        1 G97       0.1561
     22 NAR        23.2603    0.7430  -20.9800 N.pl3       1 G97      -0.2206
     23 CAV        23.9548   -0.4173  -21.0615 C.2         1 G97       0.1818
     24 CAJ        24.8551   -0.9719  -20.1605 C.2         1 G97      -0.0280
     25 CAG        25.3717   -2.0927  -20.7911 C.2         1 G97      -0.0243
     26 NAS        24.8265   -2.1743  -22.0146 N.2         1 G97      -0.2412
     27 NAN        24.0094   -1.1774  -22.1663 N.pl3       1 G97      -0.2006
     28 H1         23.2201    5.0088  -21.0368 H           1 G97       0.0660
     29 H2         22.9010    7.3358  -21.5266 H           1 G97       0.0628
     30 H3         21.2731    8.6405  -20.2800 H           1 G97       0.0649
     31 H4         19.9427    7.5833  -18.5440 H           1 G97       0.0628
     32 H5         20.2452    5.2548  -18.0307 H           1 G97       0.0660
     33 H6         20.9149    1.8672  -15.7653 H           1 G97       0.0447
     34 H7         20.2883    0.1982  -14.4666 H           1 G97       0.2290
     35 H8         22.2102   -2.9362  -14.4401 H           1 G97       0.0698
     36 H9         21.0819   -4.7228  -15.3781 H           1 G97       0.0686
     37 H10        19.6109   -3.8568  -15.3422 H           1 G97       0.0686
     38 H11        21.5992   -2.0901  -17.0359 H           1 G97       0.0570
     39 H12        22.3891   -1.3097  -19.1071 H           1 G97       0.0666
     40 H13        23.2774    1.2776  -21.7901 H           1 G97       0.2279
     41 H14        25.1078   -0.6148  -19.2398 H           1 G97       0.0216
     42 H15        26.0663   -2.7344  -20.4056 H           1 G97       0.0607
     43 H16        23.5015   -1.0045  -22.9731 H           1 G97       0.2521
@<TRIPOS>BOND
     1     1     2  ar
     2     1     6  ar
     3     2     3  ar
     4     3     4  ar
     5     4     5  ar
     6     5     6  ar
     7     6     7   1
     8     7     8  ar
     9     7     9  ar
    10     8    21  ar
    11     9    10  ar
    12    10    11  ar
    13    10    20  ar
    14    11    12  ar
    15    12    13   1
    16    12    18  ar
    17    13    14  am
    18    14    15   2
    19    14    16   1
    20    16    17   2
    21    18    19  ar
    22    19    20  ar
    23    20    21  ar
    24    21    22   1
    25    22    23   1
    26    23    24   2
    27    23    27   1
    28    24    25   1
    29    25    26   2
    30    26    27   1
    31     1    28   1
    32     2    29   1
    33     3    30   1
    34     4    31   1
    35     5    32   1
    36    11    33   1
    37    13    34   1
    38    16    35   1
    39    17    36   1
    40    17    37   1
    41    18    38   1
    42    19    39   1
    43    22    40   1
    44    24    41   1
    45    25    42   1
    46    27    43   1
@<TRIPOS>SUBSTRUCTURE
     1  G97      1

