@<TRIPOS>MOLECULE
3huc_ligand_048
    43    46
SMALL
GAST_HUCK
****
This file was generated by PARSER (from files_GN.cpp)

@<TRIPOS>ATOM
      1 CAH        20.0095   -5.9577  -12.9852 C.ar        1 G97      -0.0465
      2 CAE        19.6581   -7.2306  -13.4700 C.ar        1 G97      -0.0569
      3 CAD        19.9870   -8.3824  -12.7343 C.ar        1 G97      -0.0580
      4 CAF        20.6826   -8.2621  -11.5179 C.ar        1 G97      -0.0569
      5 CAI        21.0495   -6.9936  -11.0361 C.ar        1 G97      -0.0465
      6 CAW        20.7054   -5.8245  -11.7589 C.ar        1 G97       0.0141
      7 C2         21.0436   -4.5486  -11.2601 C.ar        1 G97       0.0921
      8 N1         20.2390   -3.4792  -11.4553 N.ar        1 G97      -0.2553
      9 N3         22.1922   -4.3683  -10.5649 N.ar        1 G97      -0.3009
     10 C4         22.5626   -3.1575  -10.0813 C.ar        1 G97       0.0255
     11 CAM        23.7821   -3.0446   -9.3979 C.ar        1 G97      -0.0253
     12 CAU        24.2254   -1.8018   -8.9003 C.ar        1 G97       0.0730
     13 NAQ        25.4667   -1.7840   -8.3157 N.am        1 G97      -0.2295
     14 CAT        26.0310   -0.8899   -7.5104 C.2         1 G97       0.2258
     15 OAB        25.4072    0.0616   -7.0516 O.2         1 G97      -0.3745
     16 CAC        27.2963   -1.1201   -7.0658 C.2         1 G97       0.0150
     17 CAA        28.1503   -0.1558   -6.6980 C.2         1 G97      -0.0781
     18 CAK        23.4002   -0.6690   -9.1041 C.ar        1 G97      -0.0283
     19 CAL        22.1650   -0.7775   -9.7760 C.ar        1 G97      -0.0465
     20 C5         21.7317   -2.0239  -10.2832 C.ar        1 G97       0.0455
     21 C6         20.5171   -2.2278  -10.9922 C.ar        1 G97       0.1561
     22 NAR        19.6537   -1.2063  -11.2141 N.pl3       1 G97      -0.2206
     23 CAV        18.4208   -1.2710  -11.7829 C.2         1 G97       0.1818
     24 CAJ        17.6405   -0.1553  -12.0429 C.2         1 G97      -0.0280
     25 CAG        16.4540   -0.6372  -12.5734 C.2         1 G97      -0.0243
     26 NAS        16.5306   -1.9745  -12.6229 N.2         1 G97      -0.2412
     27 NAN        17.6891   -2.3364  -12.1608 N.pl3       1 G97      -0.2006
     28 H1         19.7642   -5.1331  -13.5419 H           1 G97       0.0660
     29 H2         19.1619   -7.3159  -14.3607 H           1 G97       0.0628
     30 H3         19.7276   -9.3083  -13.0851 H           1 G97       0.0649
     31 H4         20.9227   -9.0960  -10.9788 H           1 G97       0.0628
     32 H5         21.5496   -6.9316  -10.1434 H           1 G97       0.0660
     33 H6         24.3547   -3.8824   -9.2578 H           1 G97       0.0447
     34 H7         26.0162   -2.5633   -8.5128 H           1 G97       0.2290
     35 H8         27.6259   -2.0600   -7.0523 H           1 G97       0.0698
     36 H9         29.0631   -0.3916   -6.3845 H           1 G97       0.0686
     37 H10        27.8908    0.7982   -6.7166 H           1 G97       0.0686
     38 H11        23.6936    0.2591   -8.7951 H           1 G97       0.0570
     39 H12        21.6031    0.0720   -9.8992 H           1 G97       0.0666
     40 H13        19.9293   -0.3242  -10.9205 H           1 G97       0.2279
     41 H14        17.8824    0.8224  -11.8678 H           1 G97       0.0216
     42 H15        15.6560   -0.0697  -12.8673 H           1 G97       0.0607
     43 H16        17.9741   -3.2587  -12.0797 H           1 G97       0.2521
@<TRIPOS>BOND
     1     1     2  ar
     2     1     6  ar
     3     2     3  ar
     4     3     4  ar
     5     4     5  ar
     6     5     6  ar
     7     6     7   1
     8     7     8  ar
     9     7     9  ar
    10     8    21  ar
    11     9    10  ar
    12    10    11  ar
    13    10    20  ar
    14    11    12  ar
    15    12    13   1
    16    12    18  ar
    17    13    14  am
    18    14    15   2
    19    14    16   1
    20    16    17   2
    21    18    19  ar
    22    19    20  ar
    23    20    21  ar
    24    21    22   1
    25    22    23   1
    26    23    24   2
    27    23    27   1
    28    24    25   1
    29    25    26   2
    30    26    27   1
    31     1    28   1
    32     2    29   1
    33     3    30   1
    34     4    31   1
    35     5    32   1
    36    11    33   1
    37    13    34   1
    38    16    35   1
    39    17    36   1
    40    17    37   1
    41    18    38   1
    42    19    39   1
    43    22    40   1
    44    24    41   1
    45    25    42   1
    46    27    43   1
@<TRIPOS>SUBSTRUCTURE
     1  G97      1

