@<TRIPOS>MOLECULE
3huc_ligand_026
    43    46
SMALL
GAST_HUCK
****
This file was generated by PARSER (from files_GN.cpp)

@<TRIPOS>ATOM
      1 CAH        20.7319    0.5561  -13.3454 C.ar        1 G97      -0.0465
      2 CAE        20.1434    1.7201  -13.8762 C.ar        1 G97      -0.0569
      3 CAD        18.7667    1.7431  -14.1651 C.ar        1 G97      -0.0580
      4 CAF        17.9882    0.5985  -13.9315 C.ar        1 G97      -0.0569
      5 CAI        18.5814   -0.5629  -13.4034 C.ar        1 G97      -0.0465
      6 CAW        19.9669   -0.6115  -13.0941 C.ar        1 G97       0.0141
      7 C2         20.5653   -1.7847  -12.5506 C.ar        1 G97       0.0921
      8 N1         19.8346   -2.9043  -12.3039 N.ar        1 G97      -0.2553
      9 N3         21.8780   -1.8256  -12.1989 N.ar        1 G97      -0.3009
     10 C4         22.4733   -2.9390  -11.7057 C.ar        1 G97       0.0255
     11 CAM        23.8442   -2.9058  -11.3976 C.ar        1 G97      -0.0253
     12 CAU        24.5177   -4.0702  -10.9666 C.ar        1 G97       0.0730
     13 NAQ        25.8413   -3.9400  -10.6594 N.am        1 G97      -0.2295
     14 CAT        26.5614   -4.6373   -9.7859 C.2         1 G97       0.2258
     15 OAB        26.0373   -5.4600   -9.0430 O.2         1 G97      -0.3745
     16 CAC        27.8892   -4.4026   -9.6110 C.2         1 G97       0.0150
     17 CAA        28.6923   -3.8594  -10.5384 C.2         1 G97      -0.0781
     18 CAK        23.8067   -5.2935  -10.9595 C.ar        1 G97      -0.0283
     19 CAL        22.4263   -5.3204  -11.2439 C.ar        1 G97      -0.0465
     20 C5         21.7158   -4.1366  -11.5441 C.ar        1 G97       0.0455
     21 C6         20.3150   -4.0598  -11.7807 C.ar        1 G97       0.1561
     22 NAR        19.2810   -4.8839  -11.5064 N.pl3       1 G97      -0.2206
     23 CAV        19.0927   -5.9202  -10.6489 C.2         1 G97       0.1818
     24 CAJ        17.7817   -6.3285  -10.4093 C.2         1 G97      -0.0280
     25 CAG        17.8425   -7.3476   -9.4723 C.2         1 G97      -0.0243
     26 NAS        19.1422   -7.5426   -9.1657 N.2         1 G97      -0.2412
     27 NAN        19.8644   -6.6924   -9.8383 N.pl3       1 G97      -0.2006
     28 H1         21.7344    0.5779  -13.1456 H           1 G97       0.0660
     29 H2         20.7120    2.5519  -14.0452 H           1 G97       0.0628
     30 H3         18.3362    2.5890  -14.5453 H           1 G97       0.0649
     31 H4         16.9878    0.6102  -14.1446 H           1 G97       0.0628
     32 H5         17.9830   -1.3803  -13.2548 H           1 G97       0.0660
     33 H6         24.3495   -2.0197  -11.4683 H           1 G97       0.0447
     34 H7         26.2915   -3.1844  -11.0772 H           1 G97       0.2290
     35 H8         28.3160   -4.7011   -8.7601 H           1 G97       0.0698
     36 H9         29.6663   -3.7623  -10.3665 H           1 G97       0.0686
     37 H10        28.3381   -3.5436  -11.4114 H           1 G97       0.0686
     38 H11        24.2861   -6.1776  -10.7546 H           1 G97       0.0570
     39 H12        21.9631   -6.2222  -11.3083 H           1 G97       0.0666
     40 H13        18.4444   -4.5705  -11.8794 H           1 G97       0.2279
     41 H14        16.9207   -5.9464  -10.8155 H           1 G97       0.0216
     42 H15        17.0617   -7.8643   -9.0721 H           1 G97       0.0607
     43 H16        20.8415   -6.6595   -9.7395 H           1 G97       0.2521
@<TRIPOS>BOND
     1     1     2  ar
     2     1     6  ar
     3     2     3  ar
     4     3     4  ar
     5     4     5  ar
     6     5     6  ar
     7     6     7   1
     8     7     8  ar
     9     7     9  ar
    10     8    21  ar
    11     9    10  ar
    12    10    11  ar
    13    10    20  ar
    14    11    12  ar
    15    12    13   1
    16    12    18  ar
    17    13    14  am
    18    14    15   2
    19    14    16   1
    20    16    17   2
    21    18    19  ar
    22    19    20  ar
    23    20    21  ar
    24    21    22   1
    25    22    23   1
    26    23    24   2
    27    23    27   1
    28    24    25   1
    29    25    26   2
    30    26    27   1
    31     1    28   1
    32     2    29   1
    33     3    30   1
    34     4    31   1
    35     5    32   1
    36    11    33   1
    37    13    34   1
    38    16    35   1
    39    17    36   1
    40    17    37   1
    41    18    38   1
    42    19    39   1
    43    22    40   1
    44    24    41   1
    45    25    42   1
    46    27    43   1
@<TRIPOS>SUBSTRUCTURE
     1  G97      1

