@<TRIPOS>MOLECULE
3huc_ligand_089
    43    46
SMALL
GAST_HUCK
****
This file was generated by PARSER (from files_GN.cpp)

@<TRIPOS>ATOM
      1 CAH        14.4303    2.0347  -11.1431 C.ar        1 G97      -0.0465
      2 CAE        14.0961    3.3734  -10.8570 C.ar        1 G97      -0.0569
      3 CAD        12.8411    3.6837  -10.3104 C.ar        1 G97      -0.0580
      4 CAF        11.9149    2.6580  -10.0702 C.ar        1 G97      -0.0569
      5 CAI        12.2518    1.3190  -10.3532 C.ar        1 G97      -0.0465
      6 CAW        13.5241    0.9740  -10.8833 C.ar        1 G97       0.0141
      7 C2         13.8918   -0.3906  -11.0997 C.ar        1 G97       0.0921
      8 N1         13.0005   -1.4112  -10.9457 N.ar        1 G97      -0.2553
      9 N3         15.1690   -0.7361  -11.4108 N.ar        1 G97      -0.3009
     10 C4         15.5671   -2.0192  -11.5973 C.ar        1 G97       0.0255
     11 CAM        16.8949   -2.2744  -11.9957 C.ar        1 G97      -0.0253
     12 CAU        17.3220   -3.5882  -12.2973 C.ar        1 G97       0.0730
     13 NAQ        18.5726   -3.9522  -12.7350 N.am        1 G97      -0.2295
     14 CAT        19.7350   -3.3081  -12.6817 C.2         1 G97       0.2258
     15 OAB        19.8666   -2.2233  -12.1295 O.2         1 G97      -0.3745
     16 CAC        20.8330   -3.9230  -13.1734 C.2         1 G97       0.0150
     17 CAA        21.7523   -3.3088  -13.9291 C.2         1 G97      -0.0781
     18 CAK        16.3701   -4.6304  -12.2258 C.ar        1 G97      -0.0283
     19 CAL        15.0554   -4.3841  -11.8020 C.ar        1 G97      -0.0465
     20 C5         14.6320   -3.0804  -11.4546 C.ar        1 G97       0.0455
     21 C6         13.3062   -2.7269  -11.0780 C.ar        1 G97       0.1561
     22 NAR        12.2675   -3.5576  -10.8186 N.pl3       1 G97      -0.2206
     23 CAV        12.3318   -4.7929  -10.2604 C.2         1 G97       0.1818
     24 CAJ        13.1818   -5.2216   -9.2475 C.2         1 G97      -0.0280
     25 CAG        12.7978   -6.5147   -8.9471 C.2         1 G97      -0.0243
     26 NAS        11.7629   -6.8325   -9.7439 N.2         1 G97      -0.2412
     27 NAN        11.4897   -5.8107  -10.4983 N.pl3       1 G97      -0.2006
     28 H1         15.3566    1.8476  -11.5369 H           1 G97       0.0660
     29 H2         14.7705    4.1220  -11.0366 H           1 G97       0.0628
     30 H3         12.6006    4.6550  -10.0904 H           1 G97       0.0649
     31 H4         10.9964    2.8886   -9.6851 H           1 G97       0.0628
     32 H5         11.5550    0.5986  -10.1529 H           1 G97       0.0660
     33 H6         17.5264   -1.4819  -12.1263 H           1 G97       0.0447
     34 H7         18.6211   -4.8383  -13.1241 H           1 G97       0.2290
     35 H8         20.9574   -4.8925  -12.9842 H           1 G97       0.0698
     36 H9         22.5408   -3.8081  -14.2585 H           1 G97       0.0686
     37 H10        21.6627   -2.3541  -14.1813 H           1 G97       0.0686
     38 H11        16.6296   -5.5856  -12.4964 H           1 G97       0.0570
     39 H12        14.4019   -5.1730  -11.8022 H           1 G97       0.0666
     40 H13        11.3812   -3.1659  -10.8608 H           1 G97       0.2279
     41 H14        13.9154   -4.6802   -8.7956 H           1 G97       0.0216
     42 H15        13.2206   -7.1145   -8.2344 H           1 G97       0.0607
     43 H16        10.7968   -5.8010  -11.1770 H           1 G97       0.2521
@<TRIPOS>BOND
     1     1     2  ar
     2     1     6  ar
     3     2     3  ar
     4     3     4  ar
     5     4     5  ar
     6     5     6  ar
     7     6     7   1
     8     7     8  ar
     9     7     9  ar
    10     8    21  ar
    11     9    10  ar
    12    10    11  ar
    13    10    20  ar
    14    11    12  ar
    15    12    13   1
    16    12    18  ar
    17    13    14  am
    18    14    15   2
    19    14    16   1
    20    16    17   2
    21    18    19  ar
    22    19    20  ar
    23    20    21  ar
    24    21    22   1
    25    22    23   1
    26    23    24   2
    27    23    27   1
    28    24    25   1
    29    25    26   2
    30    26    27   1
    31     1    28   1
    32     2    29   1
    33     3    30   1
    34     4    31   1
    35     5    32   1
    36    11    33   1
    37    13    34   1
    38    16    35   1
    39    17    36   1
    40    17    37   1
    41    18    38   1
    42    19    39   1
    43    22    40   1
    44    24    41   1
    45    25    42   1
    46    27    43   1
@<TRIPOS>SUBSTRUCTURE
     1  G97      1

