@<TRIPOS>MOLECULE
3huc_ligand_065
    43    46
SMALL
GAST_HUCK
****
This file was generated by PARSER (from files_GN.cpp)

@<TRIPOS>ATOM
      1 CAH        22.0722    1.3755  -21.4628 C.ar        1 G97      -0.0465
      2 CAE        22.1957    1.2049  -22.8544 C.ar        1 G97      -0.0569
      3 CAD        21.8019    2.2324  -23.7279 C.ar        1 G97      -0.0580
      4 CAF        21.2926    3.4329  -23.2046 C.ar        1 G97      -0.0569
      5 CAI        21.1763    3.6048  -21.8129 C.ar        1 G97      -0.0465
      6 CAW        21.5608    2.5790  -20.9110 C.ar        1 G97       0.0141
      7 C2         21.4346    2.7517  -19.5011 C.ar        1 G97       0.0921
      8 N1         21.5543    1.7119  -18.6370 N.ar        1 G97      -0.2553
      9 N3         21.1652    3.9598  -18.9523 N.ar        1 G97      -0.3009
     10 C4         21.0394    4.1518  -17.6179 C.ar        1 G97       0.0255
     11 CAM        20.7636    5.4564  -17.1650 C.ar        1 G97      -0.0253
     12 CAU        20.6398    5.7349  -15.7852 C.ar        1 G97       0.0730
     13 NAQ        20.3848    6.9586  -15.2176 N.am        1 G97      -0.2295
     14 CAT        20.1158    8.1480  -15.7451 C.2         1 G97       0.2258
     15 OAB        20.0597    8.3412  -16.9534 O.2         1 G97      -0.3745
     16 CAC        19.9087    9.1897  -14.8995 C.2         1 G97       0.0150
     17 CAA        19.0184   10.1711  -15.1016 C.2         1 G97      -0.0781
     18 CAK        20.8118    4.6628  -14.8860 C.ar        1 G97      -0.0283
     19 CAL        21.0858    3.3613  -15.3426 C.ar        1 G97      -0.0465
     20 C5         21.1915    3.0595  -16.7152 C.ar        1 G97       0.0455
     21 C6         21.4368    1.7731  -17.2829 C.ar        1 G97       0.1561
     22 NAR        21.5369    0.5091  -16.7884 N.pl3       1 G97      -0.2206
     23 CAV        21.4452   -0.1408  -15.5950 C.2         1 G97       0.1818
     24 CAJ        21.3277   -1.5253  -15.5925 C.2         1 G97      -0.0280
     25 CAG        21.2988   -1.9272  -14.2697 C.2         1 G97      -0.0243
     26 NAS        21.4109   -0.8313  -13.5098 N.2         1 G97      -0.2412
     27 NAN        21.4945    0.1993  -14.2916 N.pl3       1 G97      -0.2006
     28 H1         22.3678    0.6068  -20.8563 H           1 G97       0.0660
     29 H2         22.5728    0.3321  -23.2316 H           1 G97       0.0628
     30 H3         21.8849    2.1062  -24.7391 H           1 G97       0.0649
     31 H4         21.0077    4.1845  -23.8364 H           1 G97       0.0628
     32 H5         20.7963    4.4895  -21.4677 H           1 G97       0.0660
     33 H6         20.6636    6.1954  -17.8579 H           1 G97       0.0447
     34 H7         20.3881    6.9480  -14.2463 H           1 G97       0.2290
     35 H8         20.4220    9.2125  -14.0456 H           1 G97       0.0698
     36 H9         18.9056   10.8870  -14.4226 H           1 G97       0.0686
     37 H10        18.4530   10.2038  -15.9169 H           1 G97       0.0686
     38 H11        20.7481    4.8255  -13.8770 H           1 G97       0.0570
     39 H12        21.2360    2.6555  -14.6469 H           1 G97       0.0666
     40 H13        21.6599   -0.1318  -17.5080 H           1 G97       0.2279
     41 H14        21.2874   -2.1428  -16.4057 H           1 G97       0.0216
     42 H15        21.2324   -2.8887  -13.9329 H           1 G97       0.0607
     43 H16        21.6329    1.0835  -13.9441 H           1 G97       0.2521
@<TRIPOS>BOND
     1     1     2  ar
     2     1     6  ar
     3     2     3  ar
     4     3     4  ar
     5     4     5  ar
     6     5     6  ar
     7     6     7   1
     8     7     8  ar
     9     7     9  ar
    10     8    21  ar
    11     9    10  ar
    12    10    11  ar
    13    10    20  ar
    14    11    12  ar
    15    12    13   1
    16    12    18  ar
    17    13    14  am
    18    14    15   2
    19    14    16   1
    20    16    17   2
    21    18    19  ar
    22    19    20  ar
    23    20    21  ar
    24    21    22   1
    25    22    23   1
    26    23    24   2
    27    23    27   1
    28    24    25   1
    29    25    26   2
    30    26    27   1
    31     1    28   1
    32     2    29   1
    33     3    30   1
    34     4    31   1
    35     5    32   1
    36    11    33   1
    37    13    34   1
    38    16    35   1
    39    17    36   1
    40    17    37   1
    41    18    38   1
    42    19    39   1
    43    22    40   1
    44    24    41   1
    45    25    42   1
    46    27    43   1
@<TRIPOS>SUBSTRUCTURE
     1  G97      1

