@<TRIPOS>MOLECULE
3huc_ligand_013
    43    46
SMALL
GAST_HUCK
****
This file was generated by PARSER (from files_GN.cpp)

@<TRIPOS>ATOM
      1 CAH        21.4642   -2.6584  -13.2504 C.ar        1 G97      -0.0465
      2 CAE        21.3352   -3.9155  -12.6314 C.ar        1 G97      -0.0569
      3 CAD        21.0723   -5.0577  -13.4063 C.ar        1 G97      -0.0580
      4 CAF        20.9438   -4.9411  -14.8006 C.ar        1 G97      -0.0569
      5 CAI        21.0863   -3.6860  -15.4213 C.ar        1 G97      -0.0465
      6 CAW        21.3447   -2.5195  -14.6569 C.ar        1 G97       0.0141
      7 C2         21.4610   -1.2469  -15.2802 C.ar        1 G97       0.0921
      8 N1         21.2078   -0.1037  -14.5905 N.ar        1 G97      -0.2553
      9 N3         21.8127   -1.1237  -16.5862 N.ar        1 G97      -0.3009
     10 C4         21.9074    0.0779  -17.2077 C.ar        1 G97       0.0255
     11 CAM        22.2809    0.1236  -18.5637 C.ar        1 G97      -0.0253
     12 CAU        22.3985    1.3553  -19.2444 C.ar        1 G97       0.0730
     13 NAQ        22.7446    1.2919  -20.5692 N.am        1 G97      -0.2295
     14 CAT        23.3044    2.2017  -21.3626 C.2         1 G97       0.2258
     15 OAB        23.6658    3.2895  -20.9286 O.2         1 G97      -0.3745
     16 CAC        23.5214    1.8773  -22.6685 C.2         1 G97       0.0150
     17 CAA        24.2514    2.5899  -23.5390 C.2         1 G97      -0.0781
     18 CAK        22.0951    2.5434  -18.5373 C.ar        1 G97      -0.0283
     19 CAL        21.7228    2.5050  -17.1811 C.ar        1 G97      -0.0465
     20 C5         21.6286    1.2735  -16.4921 C.ar        1 G97       0.0455
     21 C6         21.2717    1.1467  -15.1244 C.ar        1 G97       0.1561
     22 NAR        20.9843    2.2337  -14.3627 N.pl3       1 G97      -0.2206
     23 CAV        20.6930    2.2626  -13.0346 C.2         1 G97       0.1818
     24 CAJ        20.3018    3.4037  -12.3514 C.2         1 G97      -0.0280
     25 CAG        20.1395    3.0192  -11.0303 C.2         1 G97      -0.0243
     26 NAS        20.4295    1.7121  -10.9365 N.2         1 G97      -0.2412
     27 NAN        20.7531    1.2802  -12.1161 N.pl3       1 G97      -0.2006
     28 H1         21.6613   -1.8463  -12.6602 H           1 G97       0.0660
     29 H2         21.4293   -3.9983  -11.6167 H           1 G97       0.0628
     30 H3         20.9742   -5.9709  -12.9571 H           1 G97       0.0649
     31 H4         20.7538   -5.7726  -15.3639 H           1 G97       0.0628
     32 H5         20.9752   -3.6314  -16.4375 H           1 G97       0.0660
     33 H6         22.4770   -0.7534  -19.0569 H           1 G97       0.0447
     34 H7         22.5970    0.4250  -20.9823 H           1 G97       0.2290
     35 H8         23.1060    1.0422  -23.0203 H           1 G97       0.0698
     36 H9         24.3513    2.2784  -24.4764 H           1 G97       0.0686
     37 H10        24.7056    3.4315  -23.2749 H           1 G97       0.0686
     38 H11        22.1123    3.4494  -19.0063 H           1 G97       0.0570
     39 H12        21.5120    3.3871  -16.7105 H           1 G97       0.0666
     40 H13        20.9937    3.0930  -14.8082 H           1 G97       0.2279
     41 H14        20.1628    4.3393  -12.7376 H           1 G97       0.0216
     42 H15        19.8573    3.6236  -10.2572 H           1 G97       0.0607
     43 H16        21.0188    0.3669  -12.3029 H           1 G97       0.2521
@<TRIPOS>BOND
     1     1     2  ar
     2     1     6  ar
     3     2     3  ar
     4     3     4  ar
     5     4     5  ar
     6     5     6  ar
     7     6     7   1
     8     7     8  ar
     9     7     9  ar
    10     8    21  ar
    11     9    10  ar
    12    10    11  ar
    13    10    20  ar
    14    11    12  ar
    15    12    13   1
    16    12    18  ar
    17    13    14  am
    18    14    15   2
    19    14    16   1
    20    16    17   2
    21    18    19  ar
    22    19    20  ar
    23    20    21  ar
    24    21    22   1
    25    22    23   1
    26    23    24   2
    27    23    27   1
    28    24    25   1
    29    25    26   2
    30    26    27   1
    31     1    28   1
    32     2    29   1
    33     3    30   1
    34     4    31   1
    35     5    32   1
    36    11    33   1
    37    13    34   1
    38    16    35   1
    39    17    36   1
    40    17    37   1
    41    18    38   1
    42    19    39   1
    43    22    40   1
    44    24    41   1
    45    25    42   1
    46    27    43   1
@<TRIPOS>SUBSTRUCTURE
     1  G97      1

