@<TRIPOS>MOLECULE
3huc_ligand_087
    43    46
SMALL
GAST_HUCK
****
This file was generated by PARSER (from files_GN.cpp)

@<TRIPOS>ATOM
      1 CAH        22.0329   -0.0121  -14.3604 C.ar        1 G97      -0.0465
      2 CAE        22.1133    0.9883  -15.3457 C.ar        1 G97      -0.0569
      3 CAD        21.3803    2.1824  -15.1944 C.ar        1 G97      -0.0580
      4 CAF        20.5654    2.3619  -14.0608 C.ar        1 G97      -0.0569
      5 CAI        20.4792    1.3569  -13.0880 C.ar        1 G97      -0.0465
      6 CAW        21.2305    0.1563  -13.1985 C.ar        1 G97       0.0141
      7 C2         21.1593   -0.8535  -12.1880 C.ar        1 G97       0.0921
      8 N1         22.1835   -1.7188  -11.9750 N.ar        1 G97      -0.2553
      9 N3         20.0550   -1.0268  -11.4147 N.ar        1 G97      -0.3009
     10 C4         19.9394   -2.0127  -10.4905 C.ar        1 G97       0.0255
     11 CAM        18.7158   -2.1651   -9.8111 C.ar        1 G97      -0.0253
     12 CAU        18.5082   -3.2533   -8.9326 C.ar        1 G97       0.0730
     13 NAQ        17.2620   -3.3746   -8.3760 N.am        1 G97      -0.2295
     14 CAT        16.9145   -3.9095   -7.2118 C.2         1 G97       0.2258
     15 OAB        17.7427   -4.3272   -6.4092 O.2         1 G97      -0.3745
     16 CAC        15.6029   -3.8815   -6.8525 C.2         1 G97       0.0150
     17 CAA        15.1541   -3.4931   -5.6394 C.2         1 G97      -0.0781
     18 CAK        19.5644   -4.1769   -8.7513 C.ar        1 G97      -0.0283
     19 CAL        20.7922   -4.0137   -9.4150 C.ar        1 G97      -0.0465
     20 C5         21.0136   -2.9323  -10.2988 C.ar        1 G97       0.0455
     21 C6         22.1919   -2.7394  -11.0678 C.ar        1 G97       0.1561
     22 NAR        23.3821   -3.3817  -11.1657 N.pl3       1 G97      -0.2206
     23 CAV        24.0236   -4.4405  -10.5950 C.2         1 G97       0.1818
     24 CAJ        25.1832   -4.9147  -11.2018 C.2         1 G97      -0.0280
     25 CAG        25.6544   -5.9380  -10.4120 C.2         1 G97      -0.0243
     26 NAS        24.8396   -6.0645   -9.3547 N.2         1 G97      -0.2412
     27 NAN        23.8917   -5.1780   -9.4740 N.pl3       1 G97      -0.2006
     28 H1         22.5695   -0.8760  -14.5038 H           1 G97       0.0660
     29 H2         22.6906    0.8491  -16.1675 H           1 G97       0.0628
     30 H3         21.4558    2.9202  -15.8961 H           1 G97       0.0649
     31 H4         20.0308    3.2290  -13.9592 H           1 G97       0.0628
     32 H5         19.8752    1.5142  -12.2754 H           1 G97       0.0660
     33 H6         17.9614   -1.4958   -9.9866 H           1 G97       0.0447
     34 H7         16.5331   -2.9554   -8.8702 H           1 G97       0.2290
     35 H8         14.9063   -4.0955   -7.5470 H           1 G97       0.0698
     36 H9         14.1804   -3.4397   -5.4698 H           1 G97       0.0686
     37 H10        15.7883   -3.2042   -4.9252 H           1 G97       0.0686
     38 H11        19.4101   -5.0194   -8.1934 H           1 G97       0.0570
     39 H12        21.4676   -4.7596   -9.3017 H           1 G97       0.0666
     40 H13        23.9422   -2.9914  -11.8489 H           1 G97       0.2279
     41 H14        25.6265   -4.5679  -12.0501 H           1 G97       0.0216
     42 H15        26.5047   -6.4890  -10.5633 H           1 G97       0.0607
     43 H16        23.2075   -5.0525   -8.7938 H           1 G97       0.2521
@<TRIPOS>BOND
     1     1     2  ar
     2     1     6  ar
     3     2     3  ar
     4     3     4  ar
     5     4     5  ar
     6     5     6  ar
     7     6     7   1
     8     7     8  ar
     9     7     9  ar
    10     8    21  ar
    11     9    10  ar
    12    10    11  ar
    13    10    20  ar
    14    11    12  ar
    15    12    13   1
    16    12    18  ar
    17    13    14  am
    18    14    15   2
    19    14    16   1
    20    16    17   2
    21    18    19  ar
    22    19    20  ar
    23    20    21  ar
    24    21    22   1
    25    22    23   1
    26    23    24   2
    27    23    27   1
    28    24    25   1
    29    25    26   2
    30    26    27   1
    31     1    28   1
    32     2    29   1
    33     3    30   1
    34     4    31   1
    35     5    32   1
    36    11    33   1
    37    13    34   1
    38    16    35   1
    39    17    36   1
    40    17    37   1
    41    18    38   1
    42    19    39   1
    43    22    40   1
    44    24    41   1
    45    25    42   1
    46    27    43   1
@<TRIPOS>SUBSTRUCTURE
     1  G97      1

