@<TRIPOS>MOLECULE
3huc_ligand_043
    43    46
SMALL
GAST_HUCK
****
This file was generated by PARSER (from files_GN.cpp)

@<TRIPOS>ATOM
      1 CAH        22.6410    1.0609  -21.9284 C.ar        1 G97      -0.0465
      2 CAE        22.7223    0.2782  -23.0952 C.ar        1 G97      -0.0569
      3 CAD        22.8311    0.8992  -24.3509 C.ar        1 G97      -0.0580
      4 CAF        22.8638    2.3009  -24.4366 C.ar        1 G97      -0.0569
      5 CAI        22.7877    3.0808  -23.2674 C.ar        1 G97      -0.0465
      6 CAW        22.6707    2.4794  -21.9873 C.ar        1 G97       0.0141
      7 C2         22.5856    3.2721  -20.8015 C.ar        1 G97       0.0921
      8 N1         22.4062    2.7025  -19.5797 N.ar        1 G97      -0.2553
      9 N3         22.6721    4.6299  -20.8361 N.ar        1 G97      -0.3009
     10 C4         22.5803    5.4108  -19.7285 C.ar        1 G97       0.0255
     11 CAM        22.6727    6.8129  -19.8457 C.ar        1 G97      -0.0253
     12 CAU        22.5877    7.6523  -18.7105 C.ar        1 G97       0.0730
     13 NAQ        22.6782    9.0066  -18.9205 N.am        1 G97      -0.2295
     14 CAT        22.9602    9.9878  -18.0687 C.2         1 G97       0.2258
     15 OAB        23.3099    9.7947  -16.9113 O.2         1 G97      -0.3745
     16 CAC        22.9101   11.2688  -18.4882 C.2         1 G97       0.0150
     17 CAA        23.7932   11.7928  -19.3454 C.2         1 G97      -0.0781
     18 CAK        22.3450    7.0447  -17.4539 C.ar        1 G97      -0.0283
     19 CAL        22.2500    5.6476  -17.3290 C.ar        1 G97      -0.0465
     20 C5         22.3818    4.8086  -18.4595 C.ar        1 G97       0.0455
     21 C6         22.3042    3.3938  -18.4123 C.ar        1 G97       0.1561
     22 NAR        22.1349    2.7449  -17.2334 N.pl3       1 G97      -0.2206
     23 CAV        22.0639    1.4085  -17.0178 C.2         1 G97       0.1818
     24 CAJ        21.9602    0.8459  -15.7558 C.2         1 G97      -0.0280
     25 CAG        21.9319   -0.5253  -15.9561 C.2         1 G97      -0.0243
     26 NAS        22.0237   -0.7584  -17.2740 N.2         1 G97      -0.2412
     27 NAN        22.0923    0.3820  -17.8882 N.pl3       1 G97      -0.2006
     28 H1         22.5621    0.5726  -21.0342 H           1 G97       0.0660
     29 H2         22.6996   -0.7426  -23.0310 H           1 G97       0.0628
     30 H3         22.8915    0.3298  -25.1992 H           1 G97       0.0649
     31 H4         22.9406    2.7525  -25.3506 H           1 G97       0.0628
     32 H5         22.8211    4.0977  -23.3682 H           1 G97       0.0660
     33 H6         22.8072    7.2251  -20.7742 H           1 G97       0.0447
     34 H7         22.5409    9.2893  -19.8407 H           1 G97       0.2290
     35 H8         22.2190   11.8627  -18.0915 H           1 G97       0.0698
     36 H9         23.7283   12.7499  -19.6052 H           1 G97       0.0686
     37 H10        24.5285   11.2455  -19.7313 H           1 G97       0.0686
     38 H11        22.2066    7.6113  -16.6187 H           1 G97       0.0570
     39 H12        22.0696    5.2532  -16.4055 H           1 G97       0.0666
     40 H13        22.0745    3.2958  -16.4402 H           1 G97       0.2279
     41 H14        21.9284    1.3379  -14.8610 H           1 G97       0.0216
     42 H15        21.8638   -1.2364  -15.2271 H           1 G97       0.0607
     43 H16        22.1634    0.4781  -18.8488 H           1 G97       0.2521
@<TRIPOS>BOND
     1     1     2  ar
     2     1     6  ar
     3     2     3  ar
     4     3     4  ar
     5     4     5  ar
     6     5     6  ar
     7     6     7   1
     8     7     8  ar
     9     7     9  ar
    10     8    21  ar
    11     9    10  ar
    12    10    11  ar
    13    10    20  ar
    14    11    12  ar
    15    12    13   1
    16    12    18  ar
    17    13    14  am
    18    14    15   2
    19    14    16   1
    20    16    17   2
    21    18    19  ar
    22    19    20  ar
    23    20    21  ar
    24    21    22   1
    25    22    23   1
    26    23    24   2
    27    23    27   1
    28    24    25   1
    29    25    26   2
    30    26    27   1
    31     1    28   1
    32     2    29   1
    33     3    30   1
    34     4    31   1
    35     5    32   1
    36    11    33   1
    37    13    34   1
    38    16    35   1
    39    17    36   1
    40    17    37   1
    41    18    38   1
    42    19    39   1
    43    22    40   1
    44    24    41   1
    45    25    42   1
    46    27    43   1
@<TRIPOS>SUBSTRUCTURE
     1  G97      1

