@<TRIPOS>MOLECULE
3huc_ligand_076
    43    46
SMALL
GAST_HUCK
****
This file was generated by PARSER (from files_GN.cpp)

@<TRIPOS>ATOM
      1 CAH        19.6850   -3.3265  -11.1986 C.ar        1 G97      -0.0465
      2 CAE        19.2338   -2.5798  -10.0932 C.ar        1 G97      -0.0569
      3 CAD        18.4313   -1.4431  -10.2931 C.ar        1 G97      -0.0580
      4 CAF        18.0871   -1.0449  -11.5966 C.ar        1 G97      -0.0569
      5 CAI        18.5604   -1.7734  -12.7025 C.ar        1 G97      -0.0465
      6 CAW        19.3678   -2.9247  -12.5190 C.ar        1 G97       0.0141
      7 C2         19.8554   -3.6429  -13.6287 C.ar        1 G97       0.0921
      8 N1         19.8277   -4.9996  -13.6638 N.ar        1 G97      -0.2553
      9 N3         20.3473   -2.9831  -14.7069 N.ar        1 G97      -0.3009
     10 C4         20.8197   -3.6341  -15.7980 C.ar        1 G97       0.0255
     11 CAM        21.3156   -2.8829  -16.8792 C.ar        1 G97      -0.0253
     12 CAU        21.8346   -3.5234  -18.0315 C.ar        1 G97       0.0730
     13 NAQ        22.4472   -2.8873  -19.0857 N.am        1 G97      -0.2295
     14 CAT        22.5957   -1.6002  -19.3706 C.2         1 G97       0.2258
     15 OAB        22.0883   -0.6903  -18.7253 O.2         1 G97      -0.3745
     16 CAC        23.3161   -1.2600  -20.4479 C.2         1 G97       0.0150
     17 CAA        24.5334   -0.7123  -20.3548 C.2         1 G97      -0.0781
     18 CAK        21.8020   -4.9335  -18.0811 C.ar        1 G97      -0.0283
     19 CAL        21.2965   -5.6901  -17.0061 C.ar        1 G97      -0.0465
     20 C5         20.8086   -5.0515  -15.8425 C.ar        1 G97       0.0455
     21 C6         20.2690   -5.7348  -14.7186 C.ar        1 G97       0.1561
     22 NAR        20.1582   -7.0847  -14.7100 N.pl3       1 G97      -0.2206
     23 CAV        19.5892   -7.8765  -13.7634 C.2         1 G97       0.1818
     24 CAJ        19.4745   -9.2509  -13.8874 C.2         1 G97      -0.0280
     25 CAG        18.7892   -9.6765  -12.7602 C.2         1 G97      -0.0243
     26 NAS        18.5310   -8.6016  -11.9976 N.2         1 G97      -0.2412
     27 NAN        19.0081   -7.5529  -12.5941 N.pl3       1 G97      -0.2006
     28 H1         20.2694   -4.1487  -11.0334 H           1 G97       0.0660
     29 H2         19.4955   -2.8610   -9.1440 H           1 G97       0.0628
     30 H3         18.1016   -0.9017   -9.4894 H           1 G97       0.0649
     31 H4         17.4954   -0.2207  -11.7416 H           1 G97       0.0628
     32 H5         18.2937   -1.4696  -13.6427 H           1 G97       0.0660
     33 H6         21.3193   -1.8653  -16.7933 H           1 G97       0.0447
     34 H7         22.8901   -3.4780  -19.7143 H           1 G97       0.2290
     35 H8         22.9420   -1.4619  -21.3454 H           1 G97       0.0698
     36 H9         25.0502   -0.5120  -21.1744 H           1 G97       0.0686
     37 H10        24.9546   -0.5192  -19.4763 H           1 G97       0.0686
     38 H11        22.1580   -5.4260  -18.9002 H           1 G97       0.0570
     39 H12        21.2955   -6.7061  -17.0890 H           1 G97       0.0666
     40 H13        20.4866   -7.5479  -15.4928 H           1 G97       0.2279
     41 H14        19.8133   -9.8361  -14.6541 H           1 G97       0.0216
     42 H15        18.5219  -10.6380  -12.5494 H           1 G97       0.0607
     43 H16        18.9415   -6.6524  -12.2433 H           1 G97       0.2521
@<TRIPOS>BOND
     1     1     2  ar
     2     1     6  ar
     3     2     3  ar
     4     3     4  ar
     5     4     5  ar
     6     5     6  ar
     7     6     7   1
     8     7     8  ar
     9     7     9  ar
    10     8    21  ar
    11     9    10  ar
    12    10    11  ar
    13    10    20  ar
    14    11    12  ar
    15    12    13   1
    16    12    18  ar
    17    13    14  am
    18    14    15   2
    19    14    16   1
    20    16    17   2
    21    18    19  ar
    22    19    20  ar
    23    20    21  ar
    24    21    22   1
    25    22    23   1
    26    23    24   2
    27    23    27   1
    28    24    25   1
    29    25    26   2
    30    26    27   1
    31     1    28   1
    32     2    29   1
    33     3    30   1
    34     4    31   1
    35     5    32   1
    36    11    33   1
    37    13    34   1
    38    16    35   1
    39    17    36   1
    40    17    37   1
    41    18    38   1
    42    19    39   1
    43    22    40   1
    44    24    41   1
    45    25    42   1
    46    27    43   1
@<TRIPOS>SUBSTRUCTURE
     1  G97      1

