@<TRIPOS>MOLECULE
3huc_ligand_019
    43    46
SMALL
GAST_HUCK
****
This file was generated by PARSER (from files_GN.cpp)

@<TRIPOS>ATOM
      1 CAH        22.4806   -0.9062   -7.6637 C.ar        1 G97      -0.0465
      2 CAE        22.5095   -0.6304   -6.2808 C.ar        1 G97      -0.0569
      3 CAD        21.5330   -1.1784   -5.4308 C.ar        1 G97      -0.0580
      4 CAF        20.5322   -2.0082   -5.9648 C.ar        1 G97      -0.0569
      5 CAI        20.5122   -2.2969   -7.3446 C.ar        1 G97      -0.0465
      6 CAW        21.4848   -1.7489   -8.2154 C.ar        1 G97       0.0141
      7 C2         21.4634   -2.0362   -9.6043 C.ar        1 G97       0.0921
      8 N1         21.3461   -3.3138  -10.0554 N.ar        1 G97      -0.2553
      9 N3         21.5615   -1.0437  -10.5269 N.ar        1 G97      -0.3009
     10 C4         21.5352   -1.2870  -11.8645 C.ar        1 G97       0.0255
     11 CAM        21.6166   -0.2086  -12.7684 C.ar        1 G97      -0.0253
     12 CAU        21.6035   -0.4091  -14.1685 C.ar        1 G97       0.0730
     13 NAQ        21.7047    0.7231  -14.9420 N.am        1 G97      -0.2295
     14 CAT        21.4555    0.9345  -16.2314 C.2         1 G97       0.2258
     15 OAB        21.0707    0.0586  -16.9923 O.2         1 G97      -0.3745
     16 CAC        21.6553    2.1681  -16.7379 C.2         1 G97       0.0150
     17 CAA        20.6850    2.9423  -17.2491 C.2         1 G97      -0.0781
     18 CAK        21.5197   -1.7425  -14.6422 C.ar        1 G97      -0.0283
     19 CAL        21.4286   -2.8289  -13.7489 C.ar        1 G97      -0.0465
     20 C5         21.4281   -2.6201  -12.3468 C.ar        1 G97       0.0455
     21 C6         21.3351   -3.6556  -11.3775 C.ar        1 G97       0.1561
     22 NAR        21.2354   -4.9568  -11.7583 N.pl3       1 G97      -0.2206
     23 CAV        21.1548   -6.0544  -10.9614 C.2         1 G97       0.1818
     24 CAJ        21.0338   -7.3469  -11.4468 C.2         1 G97      -0.0280
     25 CAG        20.9834   -8.1662  -10.3328 C.2         1 G97      -0.0243
     26 NAS        21.0596   -7.3951   -9.2376 N.2         1 G97      -0.2412
     27 NAN        21.1705   -6.1599   -9.6195 N.pl3       1 G97      -0.2006
     28 H1         23.2103   -0.5059   -8.2579 H           1 G97       0.0660
     29 H2         23.2411   -0.0317   -5.8909 H           1 G97       0.0628
     30 H3         21.5536   -0.9773   -4.4276 H           1 G97       0.0649
     31 H4         19.8178   -2.4014   -5.3466 H           1 G97       0.0628
     32 H5         19.7621   -2.8892   -7.7107 H           1 G97       0.0660
     33 H6         21.6892    0.7422  -12.3947 H           1 G97       0.0447
     34 H7         21.9506    1.5236  -14.4539 H           1 G97       0.2290
     35 H8         22.5755    2.5405  -16.7008 H           1 G97       0.0698
     36 H9         20.9034    3.8503  -17.5853 H           1 G97       0.0686
     37 H10        19.7401    2.6381  -17.2907 H           1 G97       0.0686
     38 H11        21.5465   -1.9478  -15.6412 H           1 G97       0.0570
     39 H12        21.3712   -3.7707  -14.1404 H           1 G97       0.0666
     40 H13        21.2201   -5.1337  -12.7113 H           1 G97       0.2279
     41 H14        20.9858   -7.6423  -12.4232 H           1 G97       0.0216
     42 H15        20.9030   -9.1796  -10.3413 H           1 G97       0.0607
     43 H16        21.2488   -5.4091   -9.0106 H           1 G97       0.2521
@<TRIPOS>BOND
     1     1     2  ar
     2     1     6  ar
     3     2     3  ar
     4     3     4  ar
     5     4     5  ar
     6     5     6  ar
     7     6     7   1
     8     7     8  ar
     9     7     9  ar
    10     8    21  ar
    11     9    10  ar
    12    10    11  ar
    13    10    20  ar
    14    11    12  ar
    15    12    13   1
    16    12    18  ar
    17    13    14  am
    18    14    15   2
    19    14    16   1
    20    16    17   2
    21    18    19  ar
    22    19    20  ar
    23    20    21  ar
    24    21    22   1
    25    22    23   1
    26    23    24   2
    27    23    27   1
    28    24    25   1
    29    25    26   2
    30    26    27   1
    31     1    28   1
    32     2    29   1
    33     3    30   1
    34     4    31   1
    35     5    32   1
    36    11    33   1
    37    13    34   1
    38    16    35   1
    39    17    36   1
    40    17    37   1
    41    18    38   1
    42    19    39   1
    43    22    40   1
    44    24    41   1
    45    25    42   1
    46    27    43   1
@<TRIPOS>SUBSTRUCTURE
     1  G97      1

