@<TRIPOS>MOLECULE
3huc_ligand_079
    43    46
SMALL
GAST_HUCK
****
This file was generated by PARSER (from files_GN.cpp)

@<TRIPOS>ATOM
      1 CAH        20.9929    1.1186  -15.8887 C.ar        1 G97      -0.0465
      2 CAE        21.3481    1.9989  -16.9269 C.ar        1 G97      -0.0569
      3 CAD        22.6083    1.8860  -17.5408 C.ar        1 G97      -0.0580
      4 CAF        23.5180    0.9103  -17.1000 C.ar        1 G97      -0.0569
      5 CAI        23.1645    0.0436  -16.0524 C.ar        1 G97      -0.0465
      6 CAW        21.8830    0.1051  -15.4484 C.ar        1 G97       0.0141
      7 C2         21.4710   -0.8823  -14.5069 C.ar        1 G97       0.0921
      8 N1         22.3248   -1.8264  -14.0271 N.ar        1 G97      -0.2553
      9 N3         20.1794   -0.9661  -14.1014 N.ar        1 G97      -0.3009
     10 C4         19.7098   -1.9852  -13.3446 C.ar        1 G97       0.0255
     11 CAM        18.3394   -1.9991  -13.0193 C.ar        1 G97      -0.0253
     12 CAU        17.7526   -3.1290  -12.4021 C.ar        1 G97       0.0730
     13 NAQ        16.4258   -3.2781  -12.0838 N.am        1 G97      -0.2295
     14 CAT        15.3601   -2.5147  -12.3192 C.2         1 G97       0.2258
     15 OAB        15.4087   -1.4286  -12.8802 O.2         1 G97      -0.3745
     16 CAC        14.1502   -3.0007  -11.9529 C.2         1 G97       0.0150
     17 CAA        13.1182   -3.1307  -12.7954 C.2         1 G97      -0.0781
     18 CAK        18.5919   -4.2414  -12.1574 C.ar        1 G97      -0.0283
     19 CAL        19.9706   -4.2079  -12.4513 C.ar        1 G97      -0.0465
     20 C5         20.5816   -3.0473  -12.9697 C.ar        1 G97       0.0455
     21 C6         21.9736   -2.8636  -13.2209 C.ar        1 G97       0.1561
     22 NAR        23.0900   -3.4649  -12.7331 N.pl3       1 G97      -0.2206
     23 CAV        23.3128   -4.2691  -11.6557 C.2         1 G97       0.1818
     24 CAJ        24.6023   -4.5372  -11.1987 C.2         1 G97      -0.0280
     25 CAG        24.4634   -5.3790  -10.1055 C.2         1 G97      -0.0243
     26 NAS        23.1490   -5.5697   -9.8995 N.2         1 G97      -0.2412
     27 NAN        22.4875   -4.8982  -10.7958 N.pl3       1 G97      -0.2006
     28 H1         20.0650    1.2190  -15.4709 H           1 G97       0.0660
     29 H2         20.6841    2.7052  -17.2472 H           1 G97       0.0628
     30 H3         22.8623    2.5118  -18.3075 H           1 G97       0.0649
     31 H4         24.4371    0.8278  -17.5408 H           1 G97       0.0628
     32 H5         23.8498   -0.6519  -15.7586 H           1 G97       0.0660
     33 H6         17.7769   -1.1889  -13.2702 H           1 G97       0.0447
     34 H7         16.2153   -4.1125  -11.6342 H           1 G97       0.2290
     35 H8         14.0466   -3.3646  -11.0309 H           1 G97       0.0698
     36 H9         12.2791   -3.5664  -12.4894 H           1 G97       0.0686
     37 H10        13.1839   -2.8478  -13.7453 H           1 G97       0.0686
     38 H11        18.1969   -5.1068  -11.7806 H           1 G97       0.0570
     39 H12        20.5024   -5.0691  -12.3679 H           1 G97       0.0666
     40 H13        23.9100   -3.1278  -13.1240 H           1 G97       0.2279
     41 H14        25.4825   -4.1865  -11.5836 H           1 G97       0.0216
     42 H15        25.2212   -5.7843   -9.5485 H           1 G97       0.0607
     43 H16        21.5152   -4.8848  -10.8364 H           1 G97       0.2521
@<TRIPOS>BOND
     1     1     2  ar
     2     1     6  ar
     3     2     3  ar
     4     3     4  ar
     5     4     5  ar
     6     5     6  ar
     7     6     7   1
     8     7     8  ar
     9     7     9  ar
    10     8    21  ar
    11     9    10  ar
    12    10    11  ar
    13    10    20  ar
    14    11    12  ar
    15    12    13   1
    16    12    18  ar
    17    13    14  am
    18    14    15   2
    19    14    16   1
    20    16    17   2
    21    18    19  ar
    22    19    20  ar
    23    20    21  ar
    24    21    22   1
    25    22    23   1
    26    23    24   2
    27    23    27   1
    28    24    25   1
    29    25    26   2
    30    26    27   1
    31     1    28   1
    32     2    29   1
    33     3    30   1
    34     4    31   1
    35     5    32   1
    36    11    33   1
    37    13    34   1
    38    16    35   1
    39    17    36   1
    40    17    37   1
    41    18    38   1
    42    19    39   1
    43    22    40   1
    44    24    41   1
    45    25    42   1
    46    27    43   1
@<TRIPOS>SUBSTRUCTURE
     1  G97      1

