@<TRIPOS>MOLECULE
3huc_ligand_068
    43    46
SMALL
GAST_HUCK
****
This file was generated by PARSER (from files_GN.cpp)

@<TRIPOS>ATOM
      1 CAH        20.4204    0.4804   -3.5184 C.ar        1 G97      -0.0465
      2 CAE        20.6139    1.3101   -2.3959 C.ar        1 G97      -0.0569
      3 CAD        20.7439    0.7407   -1.1172 C.ar        1 G97      -0.0580
      4 CAF        20.6567   -0.6523   -0.9562 C.ar        1 G97      -0.0569
      5 CAI        20.4378   -1.4785   -2.0745 C.ar        1 G97      -0.0465
      6 CAW        20.3338   -0.9255   -3.3720 C.ar        1 G97       0.0141
      7 C2         20.1778   -1.7684   -4.4971 C.ar        1 G97       0.0921
      8 N1         19.2052   -2.7148   -4.5449 N.ar        1 G97      -0.2553
      9 N3         21.0398   -1.6785   -5.5376 N.ar        1 G97      -0.3009
     10 C4         20.9249   -2.4653   -6.6318 C.ar        1 G97       0.0255
     11 CAM        21.8701   -2.3332   -7.6669 C.ar        1 G97      -0.0253
     12 CAU        21.7339   -3.0754   -8.8626 C.ar        1 G97       0.0730
     13 NAQ        22.5949   -3.0255   -9.9239 N.am        1 G97      -0.2295
     14 CAT        23.9053   -2.8043   -9.9523 C.2         1 G97       0.2258
     15 OAB        24.5452   -2.6107   -8.9237 O.2         1 G97      -0.3745
     16 CAC        24.6008   -2.8059  -11.1204 C.2         1 G97       0.0150
     17 CAA        24.3025   -3.5420  -12.2039 C.2         1 G97      -0.0781
     18 CAK        20.5816   -3.8749   -9.0247 C.ar        1 G97      -0.0283
     19 CAL        19.6369   -4.0059   -7.9892 C.ar        1 G97      -0.0465
     20 C5         19.8455   -3.3901   -6.7384 C.ar        1 G97       0.0455
     21 C6         19.0082   -3.5526   -5.5969 C.ar        1 G97       0.1561
     22 NAR        18.0192   -4.4503   -5.3471 N.pl3       1 G97      -0.2206
     23 CAV        17.6909   -5.6536   -5.8878 C.2         1 G97       0.1818
     24 CAJ        18.3949   -6.6014   -6.6259 C.2         1 G97      -0.0280
     25 CAG        17.5242   -7.6632   -6.8160 C.2         1 G97      -0.0243
     26 NAS        16.3826   -7.3885   -6.1672 N.2         1 G97      -0.2412
     27 NAN        16.5008   -6.2178   -5.6203 N.pl3       1 G97      -0.2006
     28 H1         20.3307    0.9177   -4.4407 H           1 G97       0.0660
     29 H2         20.6685    2.3262   -2.5113 H           1 G97       0.0628
     30 H3         20.9048    1.3409   -0.3032 H           1 G97       0.0649
     31 H4         20.7601   -1.0692   -0.0277 H           1 G97       0.0628
     32 H5         20.3938   -2.4920   -1.9356 H           1 G97       0.0660
     33 H6         22.6466   -1.6765   -7.5465 H           1 G97       0.0447
     34 H7         22.1917   -3.2482  -10.7776 H           1 G97       0.2290
     35 H8         25.4182   -2.2440  -11.1753 H           1 G97       0.0698
     36 H9         24.8762   -3.4880  -13.0114 H           1 G97       0.0686
     37 H10        23.5272   -4.1610  -12.2187 H           1 G97       0.0686
     38 H11        20.4268   -4.3716   -9.9046 H           1 G97       0.0570
     39 H12        18.7841   -4.5297   -8.1757 H           1 G97       0.0666
     40 H13        17.4864   -4.2306   -4.5670 H           1 G97       0.2279
     41 H14        19.3653   -6.5577   -6.9408 H           1 G97       0.0216
     42 H15        17.7186   -8.5238   -7.3286 H           1 G97       0.0607
     43 H16        15.8204   -5.8149   -5.0595 H           1 G97       0.2521
@<TRIPOS>BOND
     1     1     2  ar
     2     1     6  ar
     3     2     3  ar
     4     3     4  ar
     5     4     5  ar
     6     5     6  ar
     7     6     7   1
     8     7     8  ar
     9     7     9  ar
    10     8    21  ar
    11     9    10  ar
    12    10    11  ar
    13    10    20  ar
    14    11    12  ar
    15    12    13   1
    16    12    18  ar
    17    13    14  am
    18    14    15   2
    19    14    16   1
    20    16    17   2
    21    18    19  ar
    22    19    20  ar
    23    20    21  ar
    24    21    22   1
    25    22    23   1
    26    23    24   2
    27    23    27   1
    28    24    25   1
    29    25    26   2
    30    26    27   1
    31     1    28   1
    32     2    29   1
    33     3    30   1
    34     4    31   1
    35     5    32   1
    36    11    33   1
    37    13    34   1
    38    16    35   1
    39    17    36   1
    40    17    37   1
    41    18    38   1
    42    19    39   1
    43    22    40   1
    44    24    41   1
    45    25    42   1
    46    27    43   1
@<TRIPOS>SUBSTRUCTURE
     1  G97      1

