@<TRIPOS>MOLECULE
3imc_ligand_007
    20    21
SMALL
GAST_HUCK
****
This file was generated by PARSER (from files_GN.cpp)

@<TRIPOS>ATOM
      1 CAA        20.0276    8.0896    5.2124 C.3         1 BZ3       0.0568
      2 CAB        15.9538   10.9219    0.6981 C.2         1 BZ3       0.0189
      3 CAC        18.7395   10.7609    4.3071 C.ar        1 BZ3      -0.0453
      4 CAD        16.8913    9.8945    0.6812 C.2         1 BZ3      -0.0680
      5 CAE        17.6630   11.5047    3.7775 C.ar        1 BZ3      -0.0486
      6 CAF        18.7058    9.2645    2.3705 C.ar        1 BZ3      -0.0492
      7 NAG        16.1092   11.6274    1.8312 N.pl3       1 BZ3      -0.2845
      8 OAH        20.3379    8.9610    4.1034 O.3         1 BZ3      -0.3299
      9 CAI        19.2507    9.6351    3.6203 C.ar        1 BZ3       0.0727
     10 CAJ        17.6281   10.0074    1.8547 C.ar        1 BZ3      -0.0378
     11 CAK        17.1155   11.1053    2.5481 C.ar        1 BZ3       0.0544
     12 H1         20.9492    7.6020    5.5291 H           1 BZ3       0.0573
     13 H2         19.3101    7.3138    4.9176 H           1 BZ3       0.0573
     14 H3         19.6272    8.6474    6.0628 H           1 BZ3       0.0573
     15 H4         15.2623   11.1100   -0.0294 H           1 BZ3       0.0926
     16 H5         19.1567   11.0503    5.1922 H           1 BZ3       0.0481
     17 H6         17.0184    9.2053   -0.0621 H           1 BZ3       0.0273
     18 H7         17.2963   12.3195    4.2744 H           1 BZ3       0.0528
     19 H8         19.0840    8.4711    1.8533 H           1 BZ3       0.0430
     20 H9         15.5867   12.4094    2.0662 H           1 BZ3       0.2246
@<TRIPOS>BOND
     1     8     1   1
     2     4     2   2
     3     2     7   1
     4     3     5  ar
     5     9     3  ar
     6    10     4   1
     7     5    11  ar
     8     9     6  ar
     9     6    10  ar
    10    11     7   1
    11     8     9   1
    12    10    11  ar
    13     1    12   1
    14     1    13   1
    15     1    14   1
    16     2    15   1
    17     3    16   1
    18     4    17   1
    19     5    18   1
    20     6    19   1
    21     7    20   1
@<TRIPOS>SUBSTRUCTURE
     1  BZ3      1

