@<TRIPOS>MOLECULE
3imc_ligand_005
    20    21
SMALL
GAST_HUCK
****
This file was generated by PARSER (from files_GN.cpp)

@<TRIPOS>ATOM
      1 CAA        14.7014    7.6528    1.0963 C.3         1 BZ3       0.0568
      2 CAB        12.0002    9.0282   -4.8238 C.2         1 BZ3       0.0189
      3 CAC        13.2366   10.2688   -0.6070 C.ar        1 BZ3      -0.0453
      4 CAD        12.9562    8.2167   -4.2162 C.2         1 BZ3      -0.0680
      5 CAE        12.3943   10.6586   -1.6711 C.ar        1 BZ3      -0.0486
      6 CAF        14.0463    8.3584   -1.8999 C.ar        1 BZ3      -0.0492
      7 NAG        11.6749   10.0203   -3.9756 N.pl3       1 BZ3      -0.2845
      8 OAH        14.9196    8.8530    0.3308 O.3         1 BZ3      -0.3299
      9 CAI        14.0437    9.1079   -0.6966 C.ar        1 BZ3       0.0727
     10 CAJ        13.2019    8.7548   -2.9567 C.ar        1 BZ3      -0.0378
     11 CAK        12.3833    9.8806   -2.8413 C.ar        1 BZ3       0.0544
     12 H1         15.4212    7.6413    1.9152 H           1 BZ3       0.0573
     13 H2         14.8760    6.7665    0.4869 H           1 BZ3       0.0573
     14 H3         13.7016    7.6039    1.5340 H           1 BZ3       0.0573
     15 H4         11.6093    8.8975   -5.7598 H           1 BZ3       0.0926
     16 H5         13.2671   10.8433    0.2386 H           1 BZ3       0.0481
     17 H6         13.3823    7.3827   -4.6221 H           1 BZ3       0.0273
     18 H7         11.8004   11.4873   -1.5891 H           1 BZ3       0.0528
     19 H8         14.6478    7.5389   -2.0036 H           1 BZ3       0.0430
     20 H9         11.0384   10.7314   -4.1542 H           1 BZ3       0.2246
@<TRIPOS>BOND
     1     8     1   1
     2     4     2   2
     3     2     7   1
     4     3     5  ar
     5     9     3  ar
     6    10     4   1
     7     5    11  ar
     8     9     6  ar
     9     6    10  ar
    10    11     7   1
    11     8     9   1
    12    10    11  ar
    13     1    12   1
    14     1    13   1
    15     1    14   1
    16     2    15   1
    17     3    16   1
    18     4    17   1
    19     5    18   1
    20     6    19   1
    21     7    20   1
@<TRIPOS>SUBSTRUCTURE
     1  BZ3      1

