@<TRIPOS>MOLECULE
3imc_ligand_028
    20    21
SMALL
GAST_HUCK
****
This file was generated by PARSER (from files_GN.cpp)

@<TRIPOS>ATOM
      1 CAA        13.6130    8.2389   -4.6242 C.3         1 BZ3       0.0568
      2 CAB        12.5477   10.9821    1.1964 C.2         1 BZ3       0.0189
      3 CAC        14.5873    7.8395   -1.4088 C.ar        1 BZ3      -0.0453
      4 CAD        12.6248   11.2910   -0.1595 C.2         1 BZ3      -0.0680
      5 CAE        14.2332    8.0981   -0.0671 C.ar        1 BZ3      -0.0486
      6 CAF        13.6328    9.9871   -2.1073 C.ar        1 BZ3      -0.0492
      7 NAG        13.1285    9.7851    1.4038 N.pl3       1 BZ3      -0.2845
      8 OAH        14.6927    8.5100   -3.7116 O.3         1 BZ3      -0.3299
      9 CAI        14.2849    8.7729   -2.4306 C.ar        1 BZ3       0.0727
     10 CAJ        13.2712   10.2251   -0.7702 C.ar        1 BZ3      -0.0378
     11 CAK        13.5707    9.3008    0.2318 C.ar        1 BZ3       0.0544
     12 H1         14.0513    7.9648   -5.5830 H           1 BZ3       0.0573
     13 H2         12.9914    9.1258   -4.7705 H           1 BZ3       0.0573
     14 H3         12.9930    7.4087   -4.2748 H           1 BZ3       0.0573
     15 H4         12.1167   11.5636    1.9170 H           1 BZ3       0.0926
     16 H5         15.0668    6.9708   -1.6407 H           1 BZ3       0.0481
     17 H6         12.2625   12.1296   -0.6185 H           1 BZ3       0.0273
     18 H7         14.4574    7.4312    0.6754 H           1 BZ3       0.0528
     19 H8         13.4224   10.6745   -2.8360 H           1 BZ3       0.0430
     20 H9         13.2061    9.3416    2.2633 H           1 BZ3       0.2246
@<TRIPOS>BOND
     1     8     1   1
     2     4     2   2
     3     2     7   1
     4     3     5  ar
     5     9     3  ar
     6    10     4   1
     7     5    11  ar
     8     9     6  ar
     9     6    10  ar
    10    11     7   1
    11     8     9   1
    12    10    11  ar
    13     1    12   1
    14     1    13   1
    15     1    14   1
    16     2    15   1
    17     3    16   1
    18     4    17   1
    19     5    18   1
    20     6    19   1
    21     7    20   1
@<TRIPOS>SUBSTRUCTURE
     1  BZ3      1

