@<TRIPOS>MOLECULE
3imc_ligand_011
    20    21
SMALL
GAST_HUCK
****
This file was generated by PARSER (from files_GN.cpp)

@<TRIPOS>ATOM
      1 CAA        18.1831   12.8076    0.8540 C.3         1 BZ3       0.0568
      2 CAB        18.8329    8.2219    5.6161 C.2         1 BZ3       0.0189
      3 CAC        17.0289    9.5434    1.6324 C.ar        1 BZ3      -0.0453
      4 CAD        19.4168    9.3458    5.0330 C.2         1 BZ3      -0.0680
      5 CAE        16.8836    8.5609    2.6388 C.ar        1 BZ3      -0.0486
      6 CAF        18.8946   10.5516    2.8529 C.ar        1 BZ3      -0.0492
      7 NAG        17.8300    7.7928    4.8260 N.pl3       1 BZ3      -0.2845
      8 OAH        18.1823   11.3835    0.6438 O.3         1 BZ3      -0.3299
      9 CAI        18.0380   10.5402    1.7214 C.ar        1 BZ3       0.0727
     10 CAJ        18.7265    9.5792    3.8512 C.ar        1 BZ3      -0.0378
     11 CAK        17.7417    8.5967    3.7477 C.ar        1 BZ3       0.0544
     12 H1         18.0731   13.3017   -0.1067 H           1 BZ3       0.0573
     13 H2         19.1320   13.1308    1.2836 H           1 BZ3       0.0573
     14 H3         17.3585   13.1234    1.5086 H           1 BZ3       0.0573
     15 H4         19.1184    7.7966    6.4999 H           1 BZ3       0.0926
     16 H5         16.4150    9.5152    0.8179 H           1 BZ3       0.0481
     17 H6         20.2004    9.8906    5.3991 H           1 BZ3       0.0273
     18 H7         16.1799    7.8272    2.5484 H           1 BZ3       0.0528
     19 H8         19.6414   11.2402    2.9405 H           1 BZ3       0.0430
     20 H9         17.2747    7.0211    5.0039 H           1 BZ3       0.2246
@<TRIPOS>BOND
     1     8     1   1
     2     4     2   2
     3     2     7   1
     4     3     5  ar
     5     9     3  ar
     6    10     4   1
     7     5    11  ar
     8     9     6  ar
     9     6    10  ar
    10    11     7   1
    11     8     9   1
    12    10    11  ar
    13     1    12   1
    14     1    13   1
    15     1    14   1
    16     2    15   1
    17     3    16   1
    18     4    17   1
    19     5    18   1
    20     6    19   1
    21     7    20   1
@<TRIPOS>SUBSTRUCTURE
     1  BZ3      1

