@<TRIPOS>MOLECULE
3imc_ligand_023
    20    21
SMALL
GAST_HUCK
****
This file was generated by PARSER (from files_GN.cpp)

@<TRIPOS>ATOM
      1 CAA        17.1052   12.8901    2.8667 C.3         1 BZ3       0.0568
      2 CAB        14.6652    7.8746    6.3910 C.2         1 BZ3       0.0189
      3 CAC        14.2630   11.4495    3.5850 C.ar        1 BZ3      -0.0453
      4 CAD        15.6941    8.8088    6.4654 C.2         1 BZ3      -0.0680
      5 CAE        13.6052   10.2564    3.9513 C.ar        1 BZ3      -0.0486
      6 CAF        16.0593   10.9892    5.1895 C.ar        1 BZ3      -0.0492
      7 NAG        13.7769    8.2812    5.4665 N.pl3       1 BZ3      -0.2845
      8 OAH        16.0818   13.0023    3.8718 O.3         1 BZ3      -0.3299
      9 CAI        15.4928   11.8106    4.1875 C.ar        1 BZ3       0.0727
     10 CAJ        15.3940    9.8040    5.5456 C.ar        1 BZ3      -0.0378
     11 CAK        14.1903    9.4435    4.9372 C.ar        1 BZ3       0.0544
     12 H1         17.4929   13.8885    2.6646 H           1 BZ3       0.0573
     13 H2         16.7069   12.4855    1.9332 H           1 BZ3       0.0573
     14 H3         17.9340   12.2653    3.2101 H           1 BZ3       0.0573
     15 H4         14.5957    7.0187    6.9438 H           1 BZ3       0.0926
     16 H5         13.8433   12.0592    2.8794 H           1 BZ3       0.0481
     17 H6         16.5065    8.7712    7.0810 H           1 BZ3       0.0273
     18 H7         12.7185    9.9932    3.5153 H           1 BZ3       0.0528
     19 H8         16.9346   11.2486    5.6496 H           1 BZ3       0.0430
     20 H9         12.9693    7.8080    5.2173 H           1 BZ3       0.2246
@<TRIPOS>BOND
     1     8     1   1
     2     4     2   2
     3     2     7   1
     4     3     5  ar
     5     9     3  ar
     6    10     4   1
     7     5    11  ar
     8     9     6  ar
     9     6    10  ar
    10    11     7   1
    11     8     9   1
    12    10    11  ar
    13     1    12   1
    14     1    13   1
    15     1    14   1
    16     2    15   1
    17     3    16   1
    18     4    17   1
    19     5    18   1
    20     6    19   1
    21     7    20   1
@<TRIPOS>SUBSTRUCTURE
     1  BZ3      1

