@<TRIPOS>MOLECULE
3imc_ligand_000
    20    21
SMALL
GAST_HUCK
****
This file was generated by PARSER (from files_GN.cpp)

@<TRIPOS>ATOM
      1 CAA        18.6168    9.3743    5.7059 C.3         1 BZ3       0.0568
      2 CAB        18.1280   14.0965    0.7358 C.2         1 BZ3       0.0189
      3 CAC        17.3916   11.9401    4.6762 C.ar        1 BZ3      -0.0453
      4 CAD        18.3806   12.7311    0.7163 C.2         1 BZ3      -0.0680
      5 CAE        17.3357   13.2188    4.0915 C.ar        1 BZ3      -0.0486
      6 CAF        18.2147   10.9793    2.5854 C.ar        1 BZ3      -0.0492
      7 NAG        17.7217   14.4504    1.9642 N.pl3       1 BZ3      -0.2845
      8 OAH        17.9011    9.5483    4.4659 O.3         1 BZ3      -0.3299
      9 CAI        17.8577   10.8197    3.9466 C.ar        1 BZ3       0.0727
     10 CAJ        18.1246   12.2600    1.9966 C.ar        1 BZ3      -0.0378
     11 CAK        17.7002   13.3595    2.7451 C.ar        1 BZ3       0.0544
     12 H1         18.7198    8.3069    5.8983 H           1 BZ3       0.0573
     13 H2         18.0614    9.8094    6.5371 H           1 BZ3       0.0573
     14 H3         19.6198    9.8099    5.6689 H           1 BZ3       0.0573
     15 H4         18.2298   14.7358   -0.0597 H           1 BZ3       0.0926
     16 H5         17.0820   11.8190    5.6434 H           1 BZ3       0.0481
     17 H6         18.6960   12.1775   -0.0859 H           1 BZ3       0.0273
     18 H7         17.0345   14.0362    4.6224 H           1 BZ3       0.0528
     19 H8         18.5236   10.1827    2.0280 H           1 BZ3       0.0430
     20 H9         17.4709   15.3437    2.2449 H           1 BZ3       0.2246
@<TRIPOS>BOND
     1     8     1   1
     2     4     2   2
     3     2     7   1
     4     3     5  ar
     5     9     3  ar
     6    10     4   1
     7     5    11  ar
     8     9     6  ar
     9     6    10  ar
    10    11     7   1
    11     8     9   1
    12    10    11  ar
    13     1    12   1
    14     1    13   1
    15     1    14   1
    16     2    15   1
    17     3    16   1
    18     4    17   1
    19     5    18   1
    20     6    19   1
    21     7    20   1
@<TRIPOS>SUBSTRUCTURE
     1  BZ3      1

