@<TRIPOS>MOLECULE
3imc_ligand_002
    20    21
SMALL
GAST_HUCK
****
This file was generated by PARSER (from files_GN.cpp)

@<TRIPOS>ATOM
      1 CAA        14.0658    6.6382    1.1559 C.3         1 BZ3       0.0568
      2 CAB        17.7606   11.6579   -0.7928 C.2         1 BZ3       0.0189
      3 CAC        14.7171    8.3274   -1.4409 C.ar        1 BZ3      -0.0453
      4 CAD        16.9627   11.3652    0.3086 C.2         1 BZ3      -0.0680
      5 CAE        15.7052    9.0673   -2.1237 C.ar        1 BZ3      -0.0486
      6 CAF        15.1167    9.6288    0.5999 C.ar        1 BZ3      -0.0492
      7 NAG        17.4036   10.8695   -1.8222 N.pl3       1 BZ3      -0.2845
      8 OAH        13.5105    7.8481    0.6029 O.3         1 BZ3      -0.3299
      9 CAI        14.4451    8.5841   -0.0738 C.ar        1 BZ3       0.0727
     10 CAJ        16.1088   10.3478   -0.0897 C.ar        1 BZ3      -0.0378
     11 CAK        16.4010   10.0669   -1.4256 C.ar        1 BZ3       0.0544
     12 H1         13.2801    6.1194    1.7079 H           1 BZ3       0.0573
     13 H2         14.8934    6.8463    1.8432 H           1 BZ3       0.0573
     14 H3         14.4171    5.9672    0.3669 H           1 BZ3       0.0573
     15 H4         18.4968   12.3590   -0.8190 H           1 BZ3       0.0926
     16 H5         14.2200    7.5808   -1.9305 H           1 BZ3       0.0481
     17 H6         17.0079   11.8063    1.2281 H           1 BZ3       0.0273
     18 H7         15.9294    8.8691   -3.0994 H           1 BZ3       0.0528
     19 H8         14.9105    9.8338    1.5804 H           1 BZ3       0.0430
     20 H9         17.8183   10.8676   -2.7027 H           1 BZ3       0.2246
@<TRIPOS>BOND
     1     8     1   1
     2     4     2   2
     3     2     7   1
     4     3     5  ar
     5     9     3  ar
     6    10     4   1
     7     5    11  ar
     8     9     6  ar
     9     6    10  ar
    10    11     7   1
    11     8     9   1
    12    10    11  ar
    13     1    12   1
    14     1    13   1
    15     1    14   1
    16     2    15   1
    17     3    16   1
    18     4    17   1
    19     5    18   1
    20     6    19   1
    21     7    20   1
@<TRIPOS>SUBSTRUCTURE
     1  BZ3      1

