@<TRIPOS>MOLECULE
3imc_ligand_026
    20    21
SMALL
GAST_HUCK
****
This file was generated by PARSER (from files_GN.cpp)

@<TRIPOS>ATOM
      1 CAA        16.7971   11.8944    3.2017 C.3         1 BZ3       0.0568
      2 CAB        10.2283   10.5856    2.7698 C.2         1 BZ3       0.0189
      3 CAC        14.5257   10.0134    4.1844 C.ar        1 BZ3      -0.0453
      4 CAD        11.0215   11.7313    2.7455 C.2         1 BZ3      -0.0680
      5 CAE        13.3424    9.2889    3.9426 C.ar        1 BZ3      -0.0486
      6 CAF        13.4658   12.0753    3.3913 C.ar        1 BZ3      -0.0492
      7 NAG        10.9786    9.5410    3.1711 N.pl3       1 BZ3      -0.2845
      8 OAH        15.7376   12.1266    4.1477 O.3         1 BZ3      -0.3299
      9 CAI        14.6069   11.4003    3.8861 C.ar        1 BZ3       0.0727
     10 CAJ        12.2862   11.3444    3.1694 C.ar        1 BZ3      -0.0378
     11 CAK        12.2231    9.9729    3.4352 C.ar        1 BZ3       0.0544
     12 H1         17.6222   12.5637    3.4470 H           1 BZ3       0.0573
     13 H2         16.4754   12.1071    2.1779 H           1 BZ3       0.0573
     14 H3         17.1622   10.8668    3.2683 H           1 BZ3       0.0573
     15 H4          9.2364   10.5437    2.5377 H           1 BZ3       0.0926
     16 H5         15.3381    9.5333    4.5758 H           1 BZ3       0.0481
     17 H6         10.7155   12.6710    2.4886 H           1 BZ3       0.0273
     18 H7         13.2882    8.2860    4.1604 H           1 BZ3       0.0528
     19 H8         13.4884   13.0814    3.2220 H           1 BZ3       0.0430
     20 H9         10.6579    8.6299    3.2712 H           1 BZ3       0.2246
@<TRIPOS>BOND
     1     8     1   1
     2     4     2   2
     3     2     7   1
     4     3     5  ar
     5     9     3  ar
     6    10     4   1
     7     5    11  ar
     8     9     6  ar
     9     6    10  ar
    10    11     7   1
    11     8     9   1
    12    10    11  ar
    13     1    12   1
    14     1    13   1
    15     1    14   1
    16     2    15   1
    17     3    16   1
    18     4    17   1
    19     5    18   1
    20     6    19   1
    21     7    20   1
@<TRIPOS>SUBSTRUCTURE
     1  BZ3      1

