@<TRIPOS>MOLECULE
3imc_ligand_014
    20    21
SMALL
GAST_HUCK
****
This file was generated by PARSER (from files_GN.cpp)

@<TRIPOS>ATOM
      1 CAA        18.0221    7.6565    4.0660 C.3         1 BZ3       0.0568
      2 CAB        14.4026   11.4913   -0.6038 C.2         1 BZ3       0.0189
      3 CAC        17.6888    9.7808    2.0325 C.ar        1 BZ3      -0.0453
      4 CAD        14.0004   10.4788    0.2599 C.2         1 BZ3      -0.0680
      5 CAE        17.4712   10.7432    1.0358 C.ar        1 BZ3      -0.0486
      6 CAF        15.3346    9.1265    1.9731 C.ar        1 BZ3      -0.0492
      7 NAG        15.7127   11.7148   -0.4334 N.pl3       1 BZ3      -0.2845
      8 OAH        16.7413    7.9890    3.5011 O.3         1 BZ3      -0.3299
      9 CAI        16.6336    8.9595    2.5213 C.ar        1 BZ3       0.0727
     10 CAJ        15.1253   10.0926    0.9697 C.ar        1 BZ3      -0.0378
     11 CAK        16.1789   10.8855    0.5122 C.ar        1 BZ3       0.0544
     12 H1         17.9059    6.8625    4.8012 H           1 BZ3       0.0573
     13 H2         18.4505    8.5241    4.5681 H           1 BZ3       0.0573
     14 H3         18.6979    7.3056    3.2860 H           1 BZ3       0.0573
     15 H4         13.7983   11.9919   -1.2633 H           1 BZ3       0.0926
     16 H5         18.6394    9.6920    2.3970 H           1 BZ3       0.0481
     17 H6         13.0576   10.0936    0.3553 H           1 BZ3       0.0273
     18 H7         18.2343   11.3292    0.6895 H           1 BZ3       0.0528
     19 H8         14.5531    8.5535    2.2995 H           1 BZ3       0.0430
     20 H9         16.2496   12.3717   -0.9088 H           1 BZ3       0.2246
@<TRIPOS>BOND
     1     8     1   1
     2     4     2   2
     3     2     7   1
     4     3     5  ar
     5     9     3  ar
     6    10     4   1
     7     5    11  ar
     8     9     6  ar
     9     6    10  ar
    10    11     7   1
    11     8     9   1
    12    10    11  ar
    13     1    12   1
    14     1    13   1
    15     1    14   1
    16     2    15   1
    17     3    16   1
    18     4    17   1
    19     5    18   1
    20     6    19   1
    21     7    20   1
@<TRIPOS>SUBSTRUCTURE
     1  BZ3      1

