@<TRIPOS>MOLECULE
3imc_ligand_008
    20    21
SMALL
GAST_HUCK
****
This file was generated by PARSER (from files_GN.cpp)

@<TRIPOS>ATOM
      1 CAA        12.8048   11.1866   -0.3467 C.3         1 BZ3       0.0568
      2 CAB        16.3449    9.5766   -5.5688 C.2         1 BZ3       0.0189
      3 CAC        12.3777   10.2647   -3.4208 C.ar        1 BZ3      -0.0453
      4 CAD        16.3608    9.3664   -4.1942 C.2         1 BZ3      -0.0680
      5 CAE        12.9508   10.3021   -4.7089 C.ar        1 BZ3      -0.0486
      6 CAF        14.5256    9.5986   -2.4469 C.ar        1 BZ3      -0.0492
      7 NAG        15.1087    9.9595   -5.9356 N.pl3       1 BZ3      -0.2845
      8 OAH        12.5981    9.9445   -1.0441 O.3         1 BZ3      -0.3299
      9 CAI        13.1641    9.9428   -2.2890 C.ar        1 BZ3       0.0727
     10 CAJ        15.0800    9.6327   -3.7377 C.ar        1 BZ3      -0.0378
     11 CAK        14.3146    9.9892   -4.8506 C.ar        1 BZ3       0.0544
     12 H1         12.3564   11.0974    0.6430 H           1 BZ3       0.0573
     13 H2         12.3229   12.0194   -0.8677 H           1 BZ3       0.0573
     14 H3         13.8700   11.4007   -0.2186 H           1 BZ3       0.0573
     15 H4         17.1369    9.4562   -6.2015 H           1 BZ3       0.0926
     16 H5         11.3860   10.4789   -3.3032 H           1 BZ3       0.0481
     17 H6         17.1641    9.0752   -3.6355 H           1 BZ3       0.0273
     18 H7         12.3866   10.5513   -5.5219 H           1 BZ3       0.0528
     19 H8         15.1014    9.3374   -1.6422 H           1 BZ3       0.0430
     20 H9         14.8574   10.1762   -6.8471 H           1 BZ3       0.2246
@<TRIPOS>BOND
     1     8     1   1
     2     4     2   2
     3     2     7   1
     4     3     5  ar
     5     9     3  ar
     6    10     4   1
     7     5    11  ar
     8     9     6  ar
     9     6    10  ar
    10    11     7   1
    11     8     9   1
    12    10    11  ar
    13     1    12   1
    14     1    13   1
    15     1    14   1
    16     2    15   1
    17     3    16   1
    18     4    17   1
    19     5    18   1
    20     6    19   1
    21     7    20   1
@<TRIPOS>SUBSTRUCTURE
     1  BZ3      1

