@<TRIPOS>MOLECULE
3imc_ligand_024
    20    21
SMALL
GAST_HUCK
****
This file was generated by PARSER (from files_GN.cpp)

@<TRIPOS>ATOM
      1 CAA        19.2562    9.0096    2.2640 C.3         1 BZ3       0.0568
      2 CAB        13.3899   11.7628    3.3452 C.2         1 BZ3       0.0189
      3 CAC        17.8435   12.0117    2.3904 C.ar        1 BZ3      -0.0453
      4 CAD        13.9586   10.5960    2.8426 C.2         1 BZ3      -0.0680
      5 CAE        16.7862   12.7825    2.9157 C.ar        1 BZ3      -0.0486
      6 CAF        16.3471   10.0902    2.1043 C.ar        1 BZ3      -0.0492
      7 NAG        14.3445   12.7072    3.4452 N.pl3       1 BZ3      -0.2845
      8 OAH        18.6536    9.9799    1.3975 O.3         1 BZ3      -0.3299
      9 CAI        17.6337   10.6712    1.9897 C.ar        1 BZ3       0.0727
     10 CAJ        15.3035   10.8709    2.6268 C.ar        1 BZ3      -0.0378
     11 CAK        15.5129   12.1932    3.0233 C.ar        1 BZ3       0.0544
     12 H1         20.1040    8.5725    1.7418 H           1 BZ3       0.0573
     13 H2         18.5479    8.2146    2.5016 H           1 BZ3       0.0573
     14 H3         19.6202    9.4661    3.1866 H           1 BZ3       0.0573
     15 H4         12.4037   11.8927    3.5788 H           1 BZ3       0.0926
     16 H5         18.7729   12.4258    2.3025 H           1 BZ3       0.0481
     17 H6         13.4738    9.7195    2.6396 H           1 BZ3       0.0273
     18 H7         16.9358   13.7516    3.2011 H           1 BZ3       0.0528
     19 H8         16.1780    9.1278    1.8070 H           1 BZ3       0.0430
     20 H9         14.2099   13.6153    3.7591 H           1 BZ3       0.2246
@<TRIPOS>BOND
     1     8     1   1
     2     4     2   2
     3     2     7   1
     4     3     5  ar
     5     9     3  ar
     6    10     4   1
     7     5    11  ar
     8     9     6  ar
     9     6    10  ar
    10    11     7   1
    11     8     9   1
    12    10    11  ar
    13     1    12   1
    14     1    13   1
    15     1    14   1
    16     2    15   1
    17     3    16   1
    18     4    17   1
    19     5    18   1
    20     6    19   1
    21     7    20   1
@<TRIPOS>SUBSTRUCTURE
     1  BZ3      1

