@<TRIPOS>MOLECULE
3imc_ligand_003
    20    21
SMALL
GAST_HUCK
****
This file was generated by PARSER (from files_GN.cpp)

@<TRIPOS>ATOM
      1 CAA        11.4103    9.3940    2.8036 C.3         1 BZ3       0.0568
      2 CAB        17.2618   11.8743    1.2462 C.2         1 BZ3       0.0189
      3 CAC        13.1888   10.3089   -0.0706 C.ar        1 BZ3      -0.0453
      4 CAD        16.5751   11.1338    2.1971 C.2         1 BZ3      -0.0680
      5 CAE        14.2767   11.0676   -0.5426 C.ar        1 BZ3      -0.0486
      6 CAF        14.3098    9.9806    2.0843 C.ar        1 BZ3      -0.0492
      7 NAG        16.5190   11.9472    0.1239 N.pl3       1 BZ3      -0.2845
      8 OAH        12.1017    8.9995    1.6101 O.3         1 BZ3      -0.3299
      9 CAI        13.1852    9.7651    1.2420 C.ar        1 BZ3       0.0727
     10 CAJ        15.3800   10.7485    1.6081 C.ar        1 BZ3      -0.0378
     11 CAK        15.3711   11.2789    0.3159 C.ar        1 BZ3       0.0544
     12 H1         10.4493    8.8688    2.8291 H           1 BZ3       0.0573
     13 H2         11.2142   10.4624    2.8282 H           1 BZ3       0.0573
     14 H3         11.9795    9.1022    3.6886 H           1 BZ3       0.0573
     15 H4         18.1863   12.2984    1.3724 H           1 BZ3       0.0926
     16 H5         12.3887   10.1417   -0.6897 H           1 BZ3       0.0481
     17 H6         16.8885   10.9125    3.1443 H           1 BZ3       0.0273
     18 H7         14.2759   11.4516   -1.4848 H           1 BZ3       0.0528
     19 H8         14.3437    9.5912    3.0249 H           1 BZ3       0.0430
     20 H9         16.7692   12.4122   -0.6930 H           1 BZ3       0.2246
@<TRIPOS>BOND
     1     8     1   1
     2     4     2   2
     3     2     7   1
     4     3     5  ar
     5     9     3  ar
     6    10     4   1
     7     5    11  ar
     8     9     6  ar
     9     6    10  ar
    10    11     7   1
    11     8     9   1
    12    10    11  ar
    13     1    12   1
    14     1    13   1
    15     1    14   1
    16     2    15   1
    17     3    16   1
    18     4    17   1
    19     5    18   1
    20     6    19   1
    21     7    20   1
@<TRIPOS>SUBSTRUCTURE
     1  BZ3      1

