@<TRIPOS>MOLECULE
3imc_ligand_006
    20    21
SMALL
GAST_HUCK
****
This file was generated by PARSER (from files_GN.cpp)

@<TRIPOS>ATOM
      1 CAA        12.7506   10.3753    1.1928 C.3         1 BZ3       0.0568
      2 CAB        14.6302   10.4754   -5.2522 C.2         1 BZ3       0.0189
      3 CAC        14.9233    9.5668   -0.7898 C.ar        1 BZ3      -0.0453
      4 CAD        13.4125   10.3238   -4.5911 C.2         1 BZ3      -0.0680
      5 CAE        15.7273    9.8036   -1.9209 C.ar        1 BZ3      -0.0486
      6 CAF        12.8949    9.8331   -2.1391 C.ar        1 BZ3      -0.0492
      7 NAG        15.6297   10.3056   -4.3647 N.pl3       1 BZ3      -0.2845
      8 OAH        12.7238    9.3303    0.2056 O.3         1 BZ3      -0.3299
      9 CAI        13.5105    9.5891   -0.8882 C.ar        1 BZ3       0.0727
     10 CAJ        13.7125   10.0643   -3.2592 C.ar        1 BZ3      -0.0378
     11 CAK        15.1028   10.0508   -3.1546 C.ar        1 BZ3       0.0544
     12 H1         12.0301   10.1217    1.9729 H           1 BZ3       0.0573
     13 H2         12.4652   11.3419    0.7700 H           1 BZ3       0.0573
     14 H3         13.7393   10.4545    1.6519 H           1 BZ3       0.0573
     15 H4         14.7497   10.6809   -6.2435 H           1 BZ3       0.0926
     16 H5         15.3656    9.3836    0.1142 H           1 BZ3       0.0481
     17 H6         12.4820   10.3933   -5.0064 H           1 BZ3       0.0273
     18 H7         16.7476    9.7919   -1.8476 H           1 BZ3       0.0528
     19 H8         11.8764    9.8450   -2.2283 H           1 BZ3       0.0430
     20 H9         16.5761   10.3632   -4.5709 H           1 BZ3       0.2246
@<TRIPOS>BOND
     1     8     1   1
     2     4     2   2
     3     2     7   1
     4     3     5  ar
     5     9     3  ar
     6    10     4   1
     7     5    11  ar
     8     9     6  ar
     9     6    10  ar
    10    11     7   1
    11     8     9   1
    12    10    11  ar
    13     1    12   1
    14     1    13   1
    15     1    14   1
    16     2    15   1
    17     3    16   1
    18     4    17   1
    19     5    18   1
    20     6    19   1
    21     7    20   1
@<TRIPOS>SUBSTRUCTURE
     1  BZ3      1

