@<TRIPOS>MOLECULE
3imc_ligand_022
    20    21
SMALL
GAST_HUCK
****
This file was generated by PARSER (from files_GN.cpp)

@<TRIPOS>ATOM
      1 CAA        15.0926    8.0201    6.6254 C.3         1 BZ3       0.0568
      2 CAB        16.0724   13.7698    3.4932 C.2         1 BZ3       0.0189
      3 CAC        17.2869    9.7205    5.1942 C.ar        1 BZ3      -0.0453
      4 CAD        15.0566   12.8178    3.5417 C.2         1 BZ3      -0.0680
      5 CAE        17.8127   10.9961    4.9059 C.ar        1 BZ3      -0.0486
      6 CAF        15.0793   10.4048    4.3720 C.ar        1 BZ3      -0.0492
      7 NAG        17.2022   13.2281    3.9826 N.pl3       1 BZ3      -0.2845
      8 OAH        15.4040    8.1945    5.2309 O.3         1 BZ3      -0.3299
      9 CAI        15.9226    9.4272    4.9489 C.ar        1 BZ3       0.0727
     10 CAJ        15.6187   11.6694    4.0828 C.ar        1 BZ3      -0.0378
     11 CAK        16.9601   11.9592    4.3420 C.ar        1 BZ3       0.0544
     12 H1         14.6561    7.0290    6.7517 H           1 BZ3       0.0573
     13 H2         14.3662    8.7621    6.9736 H           1 BZ3       0.0573
     14 H3         15.9966    8.0767    7.2394 H           1 BZ3       0.0573
     15 H4         15.9737   14.7289    3.1586 H           1 BZ3       0.0926
     16 H5         17.8954    9.0019    5.5914 H           1 BZ3       0.0481
     17 H6         14.0798   12.9446    3.2643 H           1 BZ3       0.0273
     18 H7         18.7927   11.2137    5.0930 H           1 BZ3       0.0528
     19 H8         14.0944   10.2047    4.1742 H           1 BZ3       0.0430
     20 H9         18.0550   13.6791    4.0688 H           1 BZ3       0.2246
@<TRIPOS>BOND
     1     8     1   1
     2     4     2   2
     3     2     7   1
     4     3     5  ar
     5     9     3  ar
     6    10     4   1
     7     5    11  ar
     8     9     6  ar
     9     6    10  ar
    10    11     7   1
    11     8     9   1
    12    10    11  ar
    13     1    12   1
    14     1    13   1
    15     1    14   1
    16     2    15   1
    17     3    16   1
    18     4    17   1
    19     5    18   1
    20     6    19   1
    21     7    20   1
@<TRIPOS>SUBSTRUCTURE
     1  BZ3      1

