@<TRIPOS>MOLECULE
3imc_ligand_029
    20    21
SMALL
GAST_HUCK
****
This file was generated by PARSER (from files_GN.cpp)

@<TRIPOS>ATOM
      1 CAA        17.6120   10.7167    1.4564 C.3         1 BZ3       0.0568
      2 CAB        19.9301    5.8464    5.2087 C.2         1 BZ3       0.0189
      3 CAC        18.6681   10.1661    4.4425 C.ar        1 BZ3      -0.0453
      4 CAD        20.0524    6.2791    3.8920 C.2         1 BZ3      -0.0680
      5 CAE        18.7856    9.2206    5.4838 C.ar        1 BZ3      -0.0486
      6 CAF        19.4995    8.5266    2.8220 C.ar        1 BZ3      -0.0492
      7 NAG        19.4527    6.8577    5.9577 N.pl3       1 BZ3      -0.2845
      8 OAH        18.8924   10.7423    2.1091 O.3         1 BZ3      -0.3299
      9 CAI        19.0028    9.8179    3.1107 C.ar        1 BZ3       0.0727
     10 CAJ        19.6156    7.5966    3.8689 C.ar        1 BZ3      -0.0378
     11 CAK        19.2579    7.9331    5.1759 C.ar        1 BZ3       0.0544
     12 H1         17.6154   11.4771    0.6759 H           1 BZ3       0.0573
     13 H2         16.8044   10.9511    2.1544 H           1 BZ3       0.0573
     14 H3         17.4198    9.7491    0.9884 H           1 BZ3       0.0573
     15 H4         20.1601    4.9116    5.5479 H           1 BZ3       0.0926
     16 H5         18.3348   11.1102    4.6551 H           1 BZ3       0.0481
     17 H6         20.3905    5.7269    3.1024 H           1 BZ3       0.0273
     18 H7         18.5351    9.4669    6.4427 H           1 BZ3       0.0528
     19 H8         19.7643    8.2718    1.8689 H           1 BZ3       0.0430
     20 H9         19.2763    6.8157    6.9106 H           1 BZ3       0.2246
@<TRIPOS>BOND
     1     8     1   1
     2     4     2   2
     3     2     7   1
     4     3     5  ar
     5     9     3  ar
     6    10     4   1
     7     5    11  ar
     8     9     6  ar
     9     6    10  ar
    10    11     7   1
    11     8     9   1
    12    10    11  ar
    13     1    12   1
    14     1    13   1
    15     1    14   1
    16     2    15   1
    17     3    16   1
    18     4    17   1
    19     5    18   1
    20     6    19   1
    21     7    20   1
@<TRIPOS>SUBSTRUCTURE
     1  BZ3      1

