@<TRIPOS>MOLECULE
3ivg_ligand_081
    46    49
SMALL
GAST_HUCK
****
This file was generated by PARSER (from files_GN.cpp)

@<TRIPOS>ATOM
      1 C          10.7722   -9.7893   36.5583 C.2         1 FG5       0.0635
      2 N           9.4623  -11.8203   36.7215 N.pl3       1 FG5      -0.2501
      3 O          10.4435   -9.2602   37.7594 O.co2       1 FG5      -0.5663
      4 CA         10.7308  -11.2431   36.3459 C.3         1 FG5       0.1031
      5 CAA         7.2616  -15.1996   41.5489 C.3         1 FG5       0.0567
      6 OAC         7.8972  -13.7750   34.1669 O.2         1 FG5      -0.1460
      7 OAD         6.5479  -12.9758   32.1624 O.2         1 FG5      -0.1460
      8 CAF         1.2794  -13.4061   36.7692 C.ar        1 FG5      -0.0767
      9 CAG         1.6365  -14.7734   36.7300 C.ar        1 FG5      -0.0734
     10 CAH         9.6436  -14.4604   39.4012 C.ar        1 FG5      -0.0489
     11 CAI         2.1088  -12.4345   36.1668 C.ar        1 FG5      -0.0712
     12 CAJ         2.8233  -15.1834   36.0870 C.ar        1 FG5      -0.0310
     13 CAK        10.1537  -13.4878   38.5128 C.ar        1 FG5      -0.0524
     14 CAL         7.3688  -13.9975   38.6396 C.ar        1 FG5      -0.0541
     15 CAM         7.2661  -12.2262   36.8525 C.2         1 FG5      -0.0688
     16 CAN         4.2986  -12.1619   34.8818 C.2         1 FG5      -0.0189
     17 CAO         7.9113  -10.5957   35.0503 C.3         1 FG5       0.0846
     18 NAQ         7.2991  -11.1631   33.8898 N.am        1 FG5      -0.2288
     19 OAR         7.7769  -15.6896   40.2991 O.3         1 FG5      -0.3308
     20 OAS         4.8363  -14.3452   34.8640 O.3         1 FG5      -0.2287
     21 CAU         8.2539  -14.7101   39.4753 C.ar        1 FG5       0.0691
     22 CAV         8.2520  -11.5138   36.1712 C.2         1 FG5       0.0618
     23 CAW         5.2419  -13.1051   34.4823 C.2         1 FG5       0.2522
     24 CAX         3.2902  -12.8585   35.5325 C.ar        1 FG5      -0.0094
     25 CAY         7.9030  -13.0419   37.7605 C.ar        1 FG5      -0.0477
     26 CAZ         3.6441  -14.2081   35.4946 C.ar        1 FG5       0.1269
     27 CBA         9.2696  -12.7736   37.6730 C.ar        1 FG5       0.0540
     28 SBC         6.7586  -12.7543   33.7223 S.o2        1 FG5       0.1039
     29 OXT        11.1212   -8.9472   35.5625 O.co2       1 FG5      -0.5663
     30 H1         11.5578  -11.6647   36.9175 H           1 FG5       0.0766
     31 H2         10.9282  -11.4725   35.2941 H           1 FG5       0.0766
     32 H3          6.9161  -16.0551   42.1319 H           1 FG5       0.0573
     33 H4          6.4119  -14.5284   41.3946 H           1 FG5       0.0573
     34 H5          8.0376  -14.6842   42.1219 H           1 FG5       0.0573
     35 H6          0.4201  -13.1180   37.2428 H           1 FG5       0.0527
     36 H7          1.0286  -15.4694   37.1705 H           1 FG5       0.0542
     37 H8         10.2853  -14.9969   39.9917 H           1 FG5       0.0453
     38 H9          1.8617  -11.4430   36.2038 H           1 FG5       0.0546
     39 H10         3.0894  -16.1703   36.0633 H           1 FG5       0.0562
     40 H11        11.1619  -13.3303   38.4753 H           1 FG5       0.0517
     41 H12         6.3650  -14.1841   38.6563 H           1 FG5       0.0403
     42 H13         6.2568  -12.1667   36.7173 H           1 FG5       0.0155
     43 H14         4.3513  -11.1483   34.7531 H           1 FG5       0.0361
     44 H15         7.2523   -9.8117   35.4235 H           1 FG5       0.0685
     45 H16         8.8102  -10.0986   34.6936 H           1 FG5       0.0685
     46 H17         6.9095  -10.5251   33.2751 H           1 FG5       0.1706
@<TRIPOS>BOND
     1     1     3  ar
     2     4     1   1
     3     1    29  ar
     4     2     4   1
     5    22     2   1
     6     2    27   1
     7    19     5   1
     8    28     6   2
     9    28     7   2
    10     9     8  ar
    11    11     8  ar
    12    12     9  ar
    13    13    10  ar
    14    21    10  ar
    15    24    11  ar
    16    26    12  ar
    17    27    13  ar
    18    14    21  ar
    19    25    14  ar
    20    22    15   2
    21    15    25   1
    22    23    16   2
    23    16    24   1
    24    18    17   1
    25    17    22   1
    26    28    18  am
    27    21    19   1
    28    23    20   1
    29    20    26   1
    30    23    28   1
    31    24    26  ar
    32    25    27  ar
    33     4    30   1
    34     4    31   1
    35     5    32   1
    36     5    33   1
    37     5    34   1
    38     8    35   1
    39     9    36   1
    40    10    37   1
    41    11    38   1
    42    12    39   1
    43    13    40   1
    44    14    41   1
    45    15    42   1
    46    16    43   1
    47    17    44   1
    48    17    45   1
    49    18    46   1
@<TRIPOS>SUBSTRUCTURE
     1  FG5      1

