@<TRIPOS>MOLECULE
3ivg_ligand_082
    46    49
SMALL
GAST_HUCK
****
This file was generated by PARSER (from files_GN.cpp)

@<TRIPOS>ATOM
      1 C           2.5420  -14.6805   37.3732 C.2         1 FG5       0.0635
      2 N           4.7349  -13.6886   37.1148 N.pl3       1 FG5      -0.2501
      3 O           1.2873  -14.8494   36.8897 O.co2       1 FG5      -0.5663
      4 CA          3.3161  -13.5057   36.9202 C.3         1 FG5       0.1031
      5 CAA         7.2188  -15.4708   42.5893 C.3         1 FG5       0.0567
      6 OAC         3.8274  -16.6203   35.4416 O.2         1 FG5      -0.1460
      7 OAD         6.3575  -16.9309   36.0958 O.2         1 FG5      -0.1460
      8 CAF         5.0786  -21.4096   30.7716 C.ar        1 FG5      -0.0767
      9 CAG         5.9215  -22.0233   31.7225 C.ar        1 FG5      -0.0734
     10 CAH         5.6090  -13.9223   40.7499 C.ar        1 FG5      -0.0489
     11 CAI         4.6141  -20.0895   30.9714 C.ar        1 FG5      -0.0712
     12 CAJ         6.3119  -21.3283   32.8872 C.ar        1 FG5      -0.0310
     13 CAK         4.7750  -13.6796   39.6383 C.ar        1 FG5      -0.0524
     14 CAL         7.5036  -14.3743   39.2713 C.ar        1 FG5      -0.0541
     15 CAM         6.9139  -14.1247   36.8195 C.2         1 FG5      -0.0688
     16 CAN         4.7256  -18.1413   32.6216 C.2         1 FG5      -0.0189
     17 CAO         5.5881  -13.9448   34.6858 C.3         1 FG5       0.0846
     18 NAQ         5.7579  -15.2410   34.1179 N.am        1 FG5      -0.2288
     19 OAR         7.7767  -14.5334   41.6489 O.3         1 FG5      -0.3308
     20 OAS         6.0659  -19.1709   34.1061 O.3         1 FG5      -0.2287
     21 CAU         6.9657  -14.2884   40.5764 C.ar        1 FG5       0.0691
     22 CAV         5.7018  -13.8878   36.1669 C.2         1 FG5       0.0618
     23 CAW         5.3926  -18.0232   33.8393 C.2         1 FG5       0.2522
     24 CAX         5.0119  -19.4092   32.1362 C.ar        1 FG5      -0.0094
     25 CAY         6.6632  -14.1044   38.1763 C.ar        1 FG5      -0.0477
     26 CAZ         5.8447  -20.0180   33.0766 C.ar        1 FG5       0.1269
     27 CBA         5.3134  -13.7907   38.3383 C.ar        1 FG5       0.0540
     28 SBC         5.3266  -16.6675   34.9115 S.o2        1 FG5       0.1039
     29 OXT         2.8378  -15.2731   38.5592 O.co2       1 FG5      -0.5663
     30 H1          2.9732  -12.6332   37.4849 H           1 FG5       0.0766
     31 H2          3.0881  -13.3062   35.8723 H           1 FG5       0.0766
     32 H3          7.9823  -15.7229   43.3166 H           1 FG5       0.0573
     33 H4          6.8989  -16.3936   42.0966 H           1 FG5       0.0573
     34 H5          6.3745  -15.0262   43.1214 H           1 FG5       0.0573
     35 H6          4.7970  -21.9226   29.9338 H           1 FG5       0.0527
     36 H7          6.2491  -22.9790   31.5719 H           1 FG5       0.0542
     37 H8          5.2231  -13.8567   41.6958 H           1 FG5       0.0453
     38 H9          4.0001  -19.6433   30.2888 H           1 FG5       0.0546
     39 H10         6.9159  -21.7667   33.5848 H           1 FG5       0.0562
     40 H11         3.7954  -13.4355   39.7825 H           1 FG5       0.0517
     41 H12         8.4777  -14.6444   39.1190 H           1 FG5       0.0403
     42 H13         7.8161  -14.3351   36.3774 H           1 FG5       0.0155
     43 H14         4.1263  -17.4422   32.1795 H           1 FG5       0.0361
     44 H15         4.6300  -13.5636   34.3414 H           1 FG5       0.0685
     45 H16         6.3591  -13.2969   34.2639 H           1 FG5       0.0685
     46 H17         5.8294  -15.2901   33.1489 H           1 FG5       0.1706
@<TRIPOS>BOND
     1     1     3  ar
     2     4     1   1
     3     1    29  ar
     4     2     4   1
     5    22     2   1
     6     2    27   1
     7    19     5   1
     8    28     6   2
     9    28     7   2
    10     9     8  ar
    11    11     8  ar
    12    12     9  ar
    13    13    10  ar
    14    21    10  ar
    15    24    11  ar
    16    26    12  ar
    17    27    13  ar
    18    14    21  ar
    19    25    14  ar
    20    22    15   2
    21    15    25   1
    22    23    16   2
    23    16    24   1
    24    18    17   1
    25    17    22   1
    26    28    18  am
    27    21    19   1
    28    23    20   1
    29    20    26   1
    30    23    28   1
    31    24    26  ar
    32    25    27  ar
    33     4    30   1
    34     4    31   1
    35     5    32   1
    36     5    33   1
    37     5    34   1
    38     8    35   1
    39     9    36   1
    40    10    37   1
    41    11    38   1
    42    12    39   1
    43    13    40   1
    44    14    41   1
    45    15    42   1
    46    16    43   1
    47    17    44   1
    48    17    45   1
    49    18    46   1
@<TRIPOS>SUBSTRUCTURE
     1  FG5      1

