@<TRIPOS>MOLECULE
3ivg_ligand_063
    46    49
SMALL
GAST_HUCK
****
This file was generated by PARSER (from files_GN.cpp)

@<TRIPOS>ATOM
      1 C           3.6372  -14.1326   38.6514 C.2         1 FG5       0.0635
      2 N           5.7374  -13.4815   37.4609 N.pl3       1 FG5      -0.2501
      3 O           2.9958  -15.3250   38.6114 O.co2       1 FG5      -0.5663
      4 CA          4.2874  -13.5683   37.4613 C.3         1 FG5       0.1031
      5 CAA        10.7875  -14.4751   41.0898 C.3         1 FG5       0.0567
      6 OAC         7.3626  -11.1903   31.8354 O.2         1 FG5      -0.1460
      7 OAD         4.9799  -11.6823   32.3723 O.2         1 FG5      -0.1460
      8 CAF         7.3655  -18.2387   31.3685 C.ar        1 FG5      -0.0767
      9 CAG         7.2380  -17.7596   30.0449 C.ar        1 FG5      -0.0734
     10 CAH         7.6817  -15.3769   40.0894 C.ar        1 FG5      -0.0489
     11 CAI         7.2864  -17.3506   32.4621 C.ar        1 FG5      -0.0712
     12 CAJ         7.0253  -16.3864   29.7998 C.ar        1 FG5      -0.0310
     13 CAK         6.5250  -14.9414   39.3995 C.ar        1 FG5      -0.0524
     14 CAL         9.0941  -14.1129   38.5556 C.ar        1 FG5      -0.0541
     15 CAM         7.7963  -12.8640   36.8052 C.2         1 FG5      -0.0688
     16 CAN         6.9391  -14.8895   33.0440 C.2         1 FG5      -0.0189
     17 CAO         5.8832  -11.9683   35.3995 C.3         1 FG5       0.0846
     18 NAQ         6.8128  -11.7983   34.3334 N.am        1 FG5      -0.2288
     19 OAR        10.0682  -15.4537   40.3215 O.3         1 FG5      -0.3308
     20 OAS         6.7208  -14.1751   30.9258 O.3         1 FG5      -0.2287
     21 CAU         8.9661  -14.9602   39.6797 C.ar        1 FG5       0.0691
     22 CAV         6.4328  -12.7687   36.5240 C.2         1 FG5       0.0618
     23 CAW         6.7246  -13.7863   32.2231 C.2         1 FG5       0.2522
     24 CAX         7.0712  -15.9847   32.2033 C.ar        1 FG5      -0.0094
     25 CAY         7.9307  -13.6826   37.9019 C.ar        1 FG5      -0.0477
     26 CAZ         6.9406  -15.5124   30.8960 C.ar        1 FG5       0.1269
     27 CBA         6.6484  -14.0673   38.2997 C.ar        1 FG5       0.0540
     28 SBC         6.4571  -12.1508   32.7245 S.o2        1 FG5       0.1039
     29 OXT         3.6332  -13.4337   39.8164 O.co2       1 FG5      -0.5663
     30 H1          3.8799  -12.5624   37.3503 H           1 FG5       0.0766
     31 H2          3.9864  -14.1453   36.5868 H           1 FG5       0.0766
     32 H3         11.5669  -14.9794   41.6524 H           1 FG5       0.0573
     33 H4         10.1326  -13.9628   41.8000 H           1 FG5       0.0573
     34 H5         11.2696  -13.7437   40.4326 H           1 FG5       0.0573
     35 H6          7.5118  -19.2369   31.5358 H           1 FG5       0.0527
     36 H7          7.2939  -18.4132   29.2599 H           1 FG5       0.0542
     37 H8          7.5807  -16.0190   40.8801 H           1 FG5       0.0453
     38 H9          7.3752  -17.6915   33.4209 H           1 FG5       0.0546
     39 H10         6.9269  -16.0342   28.8451 H           1 FG5       0.0562
     40 H11         5.6100  -15.2821   39.7052 H           1 FG5       0.0517
     41 H12        10.0192  -13.8227   38.2227 H           1 FG5       0.0403
     42 H13         8.5694  -12.4183   36.2937 H           1 FG5       0.0155
     43 H14         6.9813  -14.8966   34.0659 H           1 FG5       0.0361
     44 H15         4.9682  -12.4433   35.0341 H           1 FG5       0.0685
     45 H16         5.6200  -10.9816   35.7671 H           1 FG5       0.0685
     46 H17         7.6694  -11.3943   34.5275 H           1 FG5       0.1706
@<TRIPOS>BOND
     1     1     3  ar
     2     4     1   1
     3     1    29  ar
     4     2     4   1
     5    22     2   1
     6     2    27   1
     7    19     5   1
     8    28     6   2
     9    28     7   2
    10     9     8  ar
    11    11     8  ar
    12    12     9  ar
    13    13    10  ar
    14    21    10  ar
    15    24    11  ar
    16    26    12  ar
    17    27    13  ar
    18    14    21  ar
    19    25    14  ar
    20    22    15   2
    21    15    25   1
    22    23    16   2
    23    16    24   1
    24    18    17   1
    25    17    22   1
    26    28    18  am
    27    21    19   1
    28    23    20   1
    29    20    26   1
    30    23    28   1
    31    24    26  ar
    32    25    27  ar
    33     4    30   1
    34     4    31   1
    35     5    32   1
    36     5    33   1
    37     5    34   1
    38     8    35   1
    39     9    36   1
    40    10    37   1
    41    11    38   1
    42    12    39   1
    43    13    40   1
    44    14    41   1
    45    15    42   1
    46    16    43   1
    47    17    44   1
    48    17    45   1
    49    18    46   1
@<TRIPOS>SUBSTRUCTURE
     1  FG5      1

