@<TRIPOS>MOLECULE
3ivg_ligand_013
    46    49
SMALL
GAST_HUCK
****
This file was generated by PARSER (from files_GN.cpp)

@<TRIPOS>ATOM
      1 C           2.9896  -15.0838   37.0503 C.2         1 FG5       0.0635
      2 N           2.5904  -12.8430   37.9255 N.pl3       1 FG5      -0.2501
      3 O           3.2249  -15.9523   36.0407 O.co2       1 FG5      -0.5663
      4 CA          2.8885  -13.6432   36.7631 C.3         1 FG5       0.1031
      5 CAA        -2.0134   -8.6352   38.9987 C.3         1 FG5       0.0567
      6 OAC         7.4975  -14.5479   38.8042 O.2         1 FG5      -0.1460
      7 OAD         8.2980  -12.2572   38.0458 O.2         1 FG5      -0.1460
      8 CAF         6.8829  -14.6535   31.6864 C.ar        1 FG5      -0.0767
      9 CAG         6.9606  -15.9844   32.1559 C.ar        1 FG5      -0.0734
     10 CAH        -0.8193  -11.2570   37.9446 C.ar        1 FG5      -0.0489
     11 CAI         6.9006  -13.5727   32.5938 C.ar        1 FG5      -0.0712
     12 CAJ         7.0651  -16.2497   33.5376 C.ar        1 FG5      -0.0310
     13 CAK         0.2364  -12.0353   37.4246 C.ar        1 FG5      -0.0524
     14 CAL         0.5092  -10.7274   39.9241 C.ar        1 FG5      -0.0541
     15 CAM         2.7692  -11.8636   39.9277 C.2         1 FG5      -0.0688
     16 CAN         7.0251  -13.0314   35.0815 C.2         1 FG5      -0.0189
     17 CAO         4.7921  -13.1831   39.1961 C.3         1 FG5       0.0846
     18 NAQ         5.6860  -12.6089   38.2529 N.am        1 FG5      -0.2288
     19 OAR        -1.7083   -9.8472   39.7122 O.3         1 FG5      -0.3308
     20 OAS         7.1666  -15.1642   35.7835 O.3         1 FG5      -0.2287
     21 CAU        -0.6788  -10.5763   39.1784 C.ar        1 FG5       0.0691
     22 CAV         3.4228  -12.6581   38.9904 C.2         1 FG5       0.0618
     23 CAW         7.1279  -13.8688   36.1875 C.2         1 FG5       0.2522
     24 CAX         6.9975  -13.8532   33.9674 C.ar        1 FG5      -0.0094
     25 CAY         1.5384  -11.5292   39.3992 C.ar        1 FG5      -0.0477
     26 CAZ         7.0818  -15.1680   34.4324 C.ar        1 FG5       0.1269
     27 CBA         1.4347  -12.1659   38.1609 C.ar        1 FG5       0.0540
     28 SBC         7.1506  -13.3362   37.8348 S.o2        1 FG5       0.1039
     29 OXT         2.8445  -15.5646   38.3063 O.co2       1 FG5      -0.5663
     30 H1          2.1244  -13.5263   35.9930 H           1 FG5       0.0766
     31 H2          3.8290  -13.3058   36.3250 H           1 FG5       0.0766
     32 H3         -2.7591   -8.0816   39.5701 H           1 FG5       0.0573
     33 H4         -2.4362   -8.8550   38.0155 H           1 FG5       0.0573
     34 H5         -1.1314   -7.9988   38.8846 H           1 FG5       0.0573
     35 H6          6.8120  -14.4739   30.6828 H           1 FG5       0.0527
     36 H7          6.9430  -16.7594   31.4889 H           1 FG5       0.0542
     37 H8         -1.6949  -11.1849   37.4242 H           1 FG5       0.0453
     38 H9          6.8430  -12.6084   32.2627 H           1 FG5       0.0546
     39 H10         7.1258  -17.2089   33.8836 H           1 FG5       0.0562
     40 H11         0.1182  -12.5093   36.5296 H           1 FG5       0.0517
     41 H12         0.6207  -10.2690   40.8312 H           1 FG5       0.0403
     42 H13         3.1293  -11.5784   40.8376 H           1 FG5       0.0155
     43 H14         6.9677  -12.0101   35.0899 H           1 FG5       0.0361
     44 H15         5.1625  -12.9371   40.1961 H           1 FG5       0.0685
     45 H16         4.7689  -14.2711   39.1086 H           1 FG5       0.0685
     46 H17         5.5818  -11.6683   38.0336 H           1 FG5       0.1706
@<TRIPOS>BOND
     1     1     3  ar
     2     4     1   1
     3     1    29  ar
     4     2     4   1
     5    22     2   1
     6     2    27   1
     7    19     5   1
     8    28     6   2
     9    28     7   2
    10     9     8  ar
    11    11     8  ar
    12    12     9  ar
    13    13    10  ar
    14    21    10  ar
    15    24    11  ar
    16    26    12  ar
    17    27    13  ar
    18    14    21  ar
    19    25    14  ar
    20    22    15   2
    21    15    25   1
    22    23    16   2
    23    16    24   1
    24    18    17   1
    25    17    22   1
    26    28    18  am
    27    21    19   1
    28    23    20   1
    29    20    26   1
    30    23    28   1
    31    24    26  ar
    32    25    27  ar
    33     4    30   1
    34     4    31   1
    35     5    32   1
    36     5    33   1
    37     5    34   1
    38     8    35   1
    39     9    36   1
    40    10    37   1
    41    11    38   1
    42    12    39   1
    43    13    40   1
    44    14    41   1
    45    15    42   1
    46    16    43   1
    47    17    44   1
    48    17    45   1
    49    18    46   1
@<TRIPOS>SUBSTRUCTURE
     1  FG5      1

