@<TRIPOS>MOLECULE
3ivg_ligand_022
    46    49
SMALL
GAST_HUCK
****
This file was generated by PARSER (from files_GN.cpp)

@<TRIPOS>ATOM
      1 C           2.7673  -14.1160   38.1546 C.2         1 FG5       0.0635
      2 N           1.8765  -12.4921   36.5672 N.pl3       1 FG5      -0.2501
      3 O           3.4942  -13.1324   38.7319 O.co2       1 FG5      -0.5663
      4 CA          1.8746  -13.8659   37.0064 C.3         1 FG5       0.1031
      5 CAA        -2.1601   -7.8129   38.6483 C.3         1 FG5       0.0567
      6 OAC         6.9783  -13.9890   37.0109 O.2         1 FG5      -0.1460
      7 OAD         7.6941  -11.9532   35.5778 O.2         1 FG5      -0.1460
      8 CAF         6.5640  -17.1157   30.8993 C.ar        1 FG5      -0.0767
      9 CAG         7.1265  -16.0112   30.2204 C.ar        1 FG5      -0.0734
     10 CAH        -0.8942  -10.4244   38.0338 C.ar        1 FG5      -0.0489
     11 CAI         6.2226  -17.0175   32.2649 C.ar        1 FG5      -0.0712
     12 CAJ         7.3571  -14.7955   30.9006 C.ar        1 FG5      -0.0310
     13 CAK        -0.1552  -11.5994   37.7844 C.ar        1 FG5      -0.0524
     14 CAL         0.6310   -9.1417   36.6295 C.ar        1 FG5      -0.0541
     15 CAM         2.4883  -10.5495   35.6331 C.2         1 FG5      -0.0688
     16 CAN         6.2322  -15.4003   34.2358 C.2         1 FG5      -0.0189
     17 CAO         4.0110  -12.4998   35.1448 C.3         1 FG5       0.0846
     18 NAQ         5.1148  -12.3418   36.0256 N.am        1 FG5      -0.2288
     19 OAR        -1.1282   -7.9655   37.6632 O.3         1 FG5      -0.3308
     20 OAS         7.1264  -13.6660   33.1180 O.3         1 FG5      -0.2287
     21 CAU        -0.5029   -9.1786   37.4708 C.ar        1 FG5       0.0691
     22 CAV         2.8034  -11.9026   35.7589 C.2         1 FG5       0.0618
     23 CAW         6.6584  -14.0771   34.3241 C.2         1 FG5       0.2522
     24 CAX         6.4535  -15.7998   32.9273 C.ar        1 FG5      -0.0094
     25 CAY         1.3492  -10.3239   36.3836 C.ar        1 FG5      -0.0477
     26 CAZ         7.0091  -14.7063   32.2590 C.ar        1 FG5       0.1269
     27 CBA         0.9805  -11.5446   36.9491 C.ar        1 FG5       0.0540
     28 SBC         6.6000  -13.0925   35.7530 S.o2        1 FG5       0.1039
     29 OXT         2.7514  -15.3288   38.7499 O.co2       1 FG5      -0.5663
     30 H1          0.8674  -14.1726   37.2938 H           1 FG5       0.0766
     31 H2          2.1658  -14.5260   36.1882 H           1 FG5       0.0766
     32 H3         -2.4214   -6.7580   38.7122 H           1 FG5       0.0573
     33 H4         -1.8214   -8.1414   39.6340 H           1 FG5       0.0573
     34 H5         -3.0481   -8.3738   38.3535 H           1 FG5       0.0573
     35 H6          6.4038  -17.9924   30.3982 H           1 FG5       0.0527
     36 H7          7.3665  -16.0943   29.2303 H           1 FG5       0.0542
     37 H8         -1.7152  -10.4900   38.6385 H           1 FG5       0.0453
     38 H9          5.8175  -17.8143   32.7609 H           1 FG5       0.0546
     39 H10         7.7692  -13.9948   30.4181 H           1 FG5       0.0562
     40 H11        -0.4465  -12.4757   38.2173 H           1 FG5       0.0517
     41 H12         0.9386   -8.2608   36.2094 H           1 FG5       0.0403
     42 H13         3.0158   -9.8442   35.1125 H           1 FG5       0.0155
     43 H14         5.8348  -15.9668   34.9876 H           1 FG5       0.0361
     44 H15         3.8433  -13.5547   34.9292 H           1 FG5       0.0685
     45 H16         4.2339  -11.9997   34.1982 H           1 FG5       0.0685
     46 H17         5.1188  -11.5529   36.5919 H           1 FG5       0.1706
@<TRIPOS>BOND
     1     1     3  ar
     2     4     1   1
     3     1    29  ar
     4     2     4   1
     5    22     2   1
     6     2    27   1
     7    19     5   1
     8    28     6   2
     9    28     7   2
    10     9     8  ar
    11    11     8  ar
    12    12     9  ar
    13    13    10  ar
    14    21    10  ar
    15    24    11  ar
    16    26    12  ar
    17    27    13  ar
    18    14    21  ar
    19    25    14  ar
    20    22    15   2
    21    15    25   1
    22    23    16   2
    23    16    24   1
    24    18    17   1
    25    17    22   1
    26    28    18  am
    27    21    19   1
    28    23    20   1
    29    20    26   1
    30    23    28   1
    31    24    26  ar
    32    25    27  ar
    33     4    30   1
    34     4    31   1
    35     5    32   1
    36     5    33   1
    37     5    34   1
    38     8    35   1
    39     9    36   1
    40    10    37   1
    41    11    38   1
    42    12    39   1
    43    13    40   1
    44    14    41   1
    45    15    42   1
    46    16    43   1
    47    17    44   1
    48    17    45   1
    49    18    46   1
@<TRIPOS>SUBSTRUCTURE
     1  FG5      1

