@<TRIPOS>MOLECULE
3ivg_ligand_079
    46    49
SMALL
GAST_HUCK
****
This file was generated by PARSER (from files_GN.cpp)

@<TRIPOS>ATOM
      1 C           1.9786  -14.6933   37.1780 C.2         1 FG5       0.0635
      2 N           1.3572  -12.3311   37.6303 N.pl3       1 FG5      -0.2501
      3 O           2.8325  -15.1981   36.2620 O.co2       1 FG5      -0.5663
      4 CA          1.1341  -13.5266   36.8457 C.3         1 FG5       0.1031
      5 CAA        -1.6220   -7.0532   39.4520 C.3         1 FG5       0.0567
      6 OAC         6.5263  -12.3238   34.9078 O.2         1 FG5      -0.1460
      7 OAD         5.1725  -14.5377   35.1427 O.2         1 FG5      -0.1460
      8 CAF         9.6646  -14.6925   40.5412 C.ar        1 FG5      -0.0767
      9 CAG         8.4729  -14.6225   41.3004 C.ar        1 FG5      -0.0734
     10 CAH        -1.7922  -10.4614   38.5263 C.ar        1 FG5      -0.0489
     11 CAI         9.6312  -14.5054   39.1416 C.ar        1 FG5      -0.0712
     12 CAJ         7.2345  -14.3869   40.6715 C.ar        1 FG5      -0.0310
     13 CAK        -1.0267  -11.5194   37.9829 C.ar        1 FG5      -0.0524
     14 CAL         0.2390   -9.3568   39.2965 C.ar        1 FG5      -0.0541
     15 CAM         2.3398  -10.5904   38.6550 C.2         1 FG5      -0.0688
     16 CAN         8.0323  -13.9706   37.2163 C.2         1 FG5      -0.0189
     17 CAO         3.9242  -12.3250   37.7850 C.3         1 FG5       0.0846
     18 NAQ         4.3018  -12.3744   36.4120 N.am        1 FG5      -0.2288
     19 OAR        -1.9595   -8.4167   39.7649 O.3         1 FG5      -0.3308
     20 OAS         6.1727  -13.9245   38.4732 O.3         1 FG5      -0.2287
     21 CAU        -1.1680   -9.3742   39.1812 C.ar        1 FG5       0.0691
     22 CAV         2.5604  -11.7878   37.9773 C.2         1 FG5       0.0618
     23 CAW         6.6535  -13.7653   37.2152 C.2         1 FG5       0.2522
     24 CAX         8.3915  -14.2509   38.5274 C.ar        1 FG5      -0.0094
     25 CAY         0.9796  -10.4024   38.7177 C.ar        1 FG5      -0.0477
     26 CAZ         7.2167  -14.2081   39.2798 C.ar        1 FG5       0.1269
     27 CBA         0.3796  -11.4855   38.0728 C.ar        1 FG5       0.0540
     28 SBC         5.6645  -13.2258   35.8937 S.o2        1 FG5       0.1039
     29 OXT         2.0153  -15.2002   38.4295 O.co2       1 FG5      -0.5663
     30 H1          0.1024  -13.8709   36.9292 H           1 FG5       0.0766
     31 H2          1.2935  -13.2647   35.7984 H           1 FG5       0.0766
     32 H3         -2.3708   -6.3956   39.9019 H           1 FG5       0.0573
     33 H4         -1.6174   -6.8822   38.3726 H           1 FG5       0.0573
     34 H5         -0.6512   -6.7842   39.8704 H           1 FG5       0.0573
     35 H6         10.5570  -14.8694   41.0102 H           1 FG5       0.0527
     36 H7          8.5059  -14.7334   42.3152 H           1 FG5       0.0542
     37 H8         -2.8076  -10.4970   38.4478 H           1 FG5       0.0453
     38 H9         10.4913  -14.5402   38.5899 H           1 FG5       0.0546
     39 H10         6.3711  -14.3288   41.2153 H           1 FG5       0.0562
     40 H11        -1.5068  -12.2974   37.5406 H           1 FG5       0.0517
     41 H12         0.7219   -8.6018   39.7864 H           1 FG5       0.0403
     42 H13         3.0479   -9.9592   39.0351 H           1 FG5       0.0155
     43 H14         8.6681  -13.8833   36.4195 H           1 FG5       0.0361
     44 H15         4.6517  -11.7185   38.3292 H           1 FG5       0.0685
     45 H16         3.9529  -13.3266   38.2180 H           1 FG5       0.0685
     46 H17         3.7097  -11.9967   35.7414 H           1 FG5       0.1706
@<TRIPOS>BOND
     1     1     3  ar
     2     4     1   1
     3     1    29  ar
     4     2     4   1
     5    22     2   1
     6     2    27   1
     7    19     5   1
     8    28     6   2
     9    28     7   2
    10     9     8  ar
    11    11     8  ar
    12    12     9  ar
    13    13    10  ar
    14    21    10  ar
    15    24    11  ar
    16    26    12  ar
    17    27    13  ar
    18    14    21  ar
    19    25    14  ar
    20    22    15   2
    21    15    25   1
    22    23    16   2
    23    16    24   1
    24    18    17   1
    25    17    22   1
    26    28    18  am
    27    21    19   1
    28    23    20   1
    29    20    26   1
    30    23    28   1
    31    24    26  ar
    32    25    27  ar
    33     4    30   1
    34     4    31   1
    35     5    32   1
    36     5    33   1
    37     5    34   1
    38     8    35   1
    39     9    36   1
    40    10    37   1
    41    11    38   1
    42    12    39   1
    43    13    40   1
    44    14    41   1
    45    15    42   1
    46    16    43   1
    47    17    44   1
    48    17    45   1
    49    18    46   1
@<TRIPOS>SUBSTRUCTURE
     1  FG5      1

