@<TRIPOS>MOLECULE
3ivg_ligand_019
    46    49
SMALL
GAST_HUCK
****
This file was generated by PARSER (from files_GN.cpp)

@<TRIPOS>ATOM
      1 C           2.9411  -14.0773   38.0454 C.2         1 FG5       0.0635
      2 N           2.5177  -12.5094   36.1981 N.pl3       1 FG5      -0.2501
      3 O           3.7692  -13.1720   38.6120 O.co2       1 FG5      -0.5663
      4 CA          2.1942  -13.7870   36.8029 C.3         1 FG5       0.1031
      5 CAA        -0.7535   -7.5820   34.1040 C.3         1 FG5       0.0567
      6 OAC         3.7865  -16.4233   36.0160 O.2         1 FG5      -0.1460
      7 OAD         6.2984  -16.4472   36.4342 O.2         1 FG5      -0.1460
      8 CAF         6.0340  -17.4380   29.6068 C.ar        1 FG5      -0.0767
      9 CAG         6.8231  -16.2657   29.5832 C.ar        1 FG5      -0.0734
     10 CAH        -0.2656   -9.9781   36.3334 C.ar        1 FG5      -0.0489
     11 CAI         5.3957  -17.8443   30.7974 C.ar        1 FG5      -0.0712
     12 CAJ         6.9916  -15.4906   30.7509 C.ar        1 FG5      -0.0310
     13 CAK         0.3692  -11.2153   36.5878 C.ar        1 FG5      -0.0524
     14 CAL         1.7278   -9.1622   35.1916 C.ar        1 FG5      -0.0541
     15 CAM         3.5758  -10.8915   35.0684 C.2         1 FG5      -0.0688
     16 CAN         5.0499  -17.1694   33.2319 C.2         1 FG5      -0.0189
     17 CAO         4.8740  -13.0205   35.2079 C.3         1 FG5       0.0846
     18 NAQ         5.1538  -14.1082   36.0804 N.am        1 FG5      -0.2288
     19 OAR        -0.2118   -7.7448   35.4279 O.3         1 FG5      -0.3308
     20 OAS         6.3189  -15.3146   33.1491 O.3         1 FG5      -0.2287
     21 CAU         0.4049   -8.9512   35.6325 C.ar        1 FG5       0.0691
     22 CAV         3.6841  -12.1964   35.5539 C.2         1 FG5       0.0618
     23 CAW         5.5269  -16.0743   33.9477 C.2         1 FG5       0.2522
     24 CAX         5.5639  -17.0569   31.9492 C.ar        1 FG5      -0.0094
     25 CAY         2.3349  -10.4068   35.4309 C.ar        1 FG5      -0.0477
     26 CAZ         6.3474  -15.9019   31.9296 C.ar        1 FG5       0.1269
     27 CBA         1.6865  -11.4318   36.1238 C.ar        1 FG5       0.0540
     28 SBC         5.1513  -15.7274   35.6046 S.o2        1 FG5       0.1039
     29 OXT         2.7461  -15.2470   38.6937 O.co2       1 FG5      -0.5663
     30 H1          1.1318  -13.8539   37.0508 H           1 FG5       0.0766
     31 H2          2.3842  -14.5741   36.0705 H           1 FG5       0.0766
     32 H3         -1.2813   -6.6271   34.0605 H           1 FG5       0.0573
     33 H4         -1.4666   -8.3738   33.8589 H           1 FG5       0.0573
     34 H5          0.0407   -7.5626   33.3529 H           1 FG5       0.0573
     35 H6          5.9140  -17.9877   28.7528 H           1 FG5       0.0527
     36 H7          7.2614  -15.9711   28.7085 H           1 FG5       0.0542
     37 H8         -1.2234   -9.8274   36.6557 H           1 FG5       0.0453
     38 H9          4.8072  -18.6821   30.8161 H           1 FG5       0.0546
     39 H10         7.5514  -14.6362   30.7370 H           1 FG5       0.0562
     40 H11        -0.1366  -11.9399   37.0971 H           1 FG5       0.0517
     41 H12         2.2349   -8.4293   34.6915 H           1 FG5       0.0403
     42 H13         4.2727  -10.3830   34.5220 H           1 FG5       0.0155
     43 H14         4.4299  -17.9047   33.5760 H           1 FG5       0.0361
     44 H15         4.7469  -13.3593   34.1795 H           1 FG5       0.0685
     45 H16         5.7665  -12.3901   35.2333 H           1 FG5       0.0685
     46 H17         5.4834  -13.8985   36.9697 H           1 FG5       0.1706
@<TRIPOS>BOND
     1     1     3  ar
     2     4     1   1
     3     1    29  ar
     4     2     4   1
     5    22     2   1
     6     2    27   1
     7    19     5   1
     8    28     6   2
     9    28     7   2
    10     9     8  ar
    11    11     8  ar
    12    12     9  ar
    13    13    10  ar
    14    21    10  ar
    15    24    11  ar
    16    26    12  ar
    17    27    13  ar
    18    14    21  ar
    19    25    14  ar
    20    22    15   2
    21    15    25   1
    22    23    16   2
    23    16    24   1
    24    18    17   1
    25    17    22   1
    26    28    18  am
    27    21    19   1
    28    23    20   1
    29    20    26   1
    30    23    28   1
    31    24    26  ar
    32    25    27  ar
    33     4    30   1
    34     4    31   1
    35     5    32   1
    36     5    33   1
    37     5    34   1
    38     8    35   1
    39     9    36   1
    40    10    37   1
    41    11    38   1
    42    12    39   1
    43    13    40   1
    44    14    41   1
    45    15    42   1
    46    16    43   1
    47    17    44   1
    48    17    45   1
    49    18    46   1
@<TRIPOS>SUBSTRUCTURE
     1  FG5      1

