@<TRIPOS>MOLECULE
3ivg_ligand_029
    46    49
SMALL
GAST_HUCK
****
This file was generated by PARSER (from files_GN.cpp)

@<TRIPOS>ATOM
      1 C           4.2546  -16.4245   37.3226 C.2         1 FG5       0.0635
      2 N           2.8977  -17.2381   35.4699 N.pl3       1 FG5      -0.2501
      3 O           3.8076  -16.1827   38.5829 O.co2       1 FG5      -0.5663
      4 CA          3.3846  -16.0778   36.1807 C.3         1 FG5       0.1031
      5 CAA         5.6631  -21.0494   31.3018 C.3         1 FG5       0.0567
      6 OAC        -0.2980  -13.7203   33.7660 O.2         1 FG5      -0.1460
      7 OAD         2.0082  -14.5893   34.0953 O.2         1 FG5      -0.1460
      8 CAF         0.9686  -10.8530   40.0080 C.ar        1 FG5      -0.0767
      9 CAG         1.0774   -9.8233   39.0439 C.ar        1 FG5      -0.0734
     10 CAH         5.6514  -19.2346   33.8785 C.ar        1 FG5      -0.0489
     11 CAI         0.8093  -12.1964   39.6037 C.ar        1 FG5      -0.0712
     12 CAJ         1.0384  -10.1264   37.6664 C.ar        1 FG5      -0.0310
     13 CAK         5.0849  -18.1600   34.5964 C.ar        1 FG5      -0.0524
     14 CAL         3.4344  -20.2093   33.5409 C.ar        1 FG5      -0.0541
     15 CAM         1.5828  -18.8303   34.5833 C.2         1 FG5      -0.0688
     16 CAN         0.6307  -13.6698   37.5319 C.2         1 FG5      -0.0189
     17 CAO         0.3619  -17.0172   35.8405 C.3         1 FG5       0.0846
     18 NAQ        -0.1341  -15.9600   35.0255 N.am        1 FG5      -0.2288
     19 OAR         5.3931  -21.3217   32.6881 O.3         1 FG5      -0.3308
     20 OAS         0.8378  -12.0088   36.0339 O.3         1 FG5      -0.2287
     21 CAU         4.8318  -20.2605   33.3487 C.ar        1 FG5       0.0691
     22 CAV         1.6015  -17.6386   35.3120 C.2         1 FG5       0.0618
     23 CAW         0.6839  -13.3503   36.1770 C.2         1 FG5       0.2522
     24 CAX         0.7681  -12.4789   38.2271 C.ar        1 FG5      -0.0094
     25 CAY         2.8911  -19.1322   34.2641 C.ar        1 FG5      -0.0477
     26 CAZ         0.8862  -11.4676   37.2744 C.ar        1 FG5       0.1269
     27 CBA         3.6897  -18.1221   34.8060 C.ar        1 FG5       0.0540
     28 SBC         0.6109  -14.4587   34.8437 S.o2        1 FG5       0.1039
     29 OXT         5.5941  -16.4143   37.1421 O.co2       1 FG5      -0.5663
     30 H1          3.9275  -15.4373   35.4850 H           1 FG5       0.0766
     31 H2          2.5691  -15.4779   36.5644 H           1 FG5       0.0766
     32 H3          6.1081  -21.9436   30.8662 H           1 FG5       0.0573
     33 H4          6.3724  -20.2254   31.1907 H           1 FG5       0.0573
     34 H5          4.7437  -20.8215   30.7569 H           1 FG5       0.0573
     35 H6          1.0043  -10.6236   41.0029 H           1 FG5       0.0527
     36 H7          1.1854   -8.8541   39.3466 H           1 FG5       0.0542
     37 H8          6.6654  -19.2622   33.7405 H           1 FG5       0.0453
     38 H9          0.7287  -12.9445   40.2940 H           1 FG5       0.0546
     39 H10         1.1202   -9.3874   36.9655 H           1 FG5       0.0562
     40 H11         5.6918  -17.4193   34.9567 H           1 FG5       0.0517
     41 H12         2.8317  -20.9450   33.1725 H           1 FG5       0.0403
     42 H13         0.7584  -19.3739   34.3256 H           1 FG5       0.0155
     43 H14         0.5295  -14.5940   37.9473 H           1 FG5       0.0361
     44 H15        -0.4286  -17.7729   35.8879 H           1 FG5       0.0685
     45 H16         0.5154  -16.6738   36.8614 H           1 FG5       0.0685
     46 H17        -0.9353  -16.1261   34.5023 H           1 FG5       0.1706
@<TRIPOS>BOND
     1     1     3  ar
     2     4     1   1
     3     1    29  ar
     4     2     4   1
     5    22     2   1
     6     2    27   1
     7    19     5   1
     8    28     6   2
     9    28     7   2
    10     9     8  ar
    11    11     8  ar
    12    12     9  ar
    13    13    10  ar
    14    21    10  ar
    15    24    11  ar
    16    26    12  ar
    17    27    13  ar
    18    14    21  ar
    19    25    14  ar
    20    22    15   2
    21    15    25   1
    22    23    16   2
    23    16    24   1
    24    18    17   1
    25    17    22   1
    26    28    18  am
    27    21    19   1
    28    23    20   1
    29    20    26   1
    30    23    28   1
    31    24    26  ar
    32    25    27  ar
    33     4    30   1
    34     4    31   1
    35     5    32   1
    36     5    33   1
    37     5    34   1
    38     8    35   1
    39     9    36   1
    40    10    37   1
    41    11    38   1
    42    12    39   1
    43    13    40   1
    44    14    41   1
    45    15    42   1
    46    16    43   1
    47    17    44   1
    48    17    45   1
    49    18    46   1
@<TRIPOS>SUBSTRUCTURE
     1  FG5      1

