@<TRIPOS>MOLECULE
3ivg_ligand_080
    46    49
SMALL
GAST_HUCK
****
This file was generated by PARSER (from files_GN.cpp)

@<TRIPOS>ATOM
      1 C           6.3473  -14.3825   40.8141 C.2         1 FG5       0.0635
      2 N           5.2399  -13.8153   38.7111 N.pl3       1 FG5      -0.2501
      3 O           6.4104  -15.6786   40.4161 O.co2       1 FG5      -0.5663
      4 CA          5.6835  -13.3428   40.0002 C.3         1 FG5       0.1031
      5 CAA        -0.1711  -16.3453   36.6889 C.3         1 FG5       0.0567
      6 OAC         8.8760  -13.4468   33.8595 O.2         1 FG5      -0.1460
      7 OAD         9.2531  -11.6806   35.6046 O.2         1 FG5      -0.1460
      8 CAF         3.0319  -10.1537   32.6333 C.ar        1 FG5      -0.0767
      9 CAG         2.5046  -10.4210   33.9179 C.ar        1 FG5      -0.0734
     10 CAH         1.5213  -14.2676   38.3956 C.ar        1 FG5      -0.0489
     11 CAI         4.3700  -10.4783   32.3263 C.ar        1 FG5      -0.0712
     12 CAJ         3.3148  -11.0137   34.9135 C.ar        1 FG5      -0.0310
     13 CAK         2.7299  -13.9355   39.0462 C.ar        1 FG5      -0.0524
     14 CAL         2.7501  -14.9047   36.3798 C.ar        1 FG5      -0.0541
     15 CAM         5.2447  -14.5940   36.6131 C.2         1 FG5      -0.0688
     16 CAN         6.4798  -11.5160   33.3219 C.2         1 FG5      -0.0189
     17 CAO         7.5004  -13.8146   37.5548 C.3         1 FG5       0.0846
     18 NAQ         8.0714  -14.0009   36.2621 N.am        1 FG5      -0.2288
     19 OAR         0.3506  -15.0327   36.4240 O.3         1 FG5      -0.3308
     20 OAS         5.6120  -11.8831   35.3429 O.3         1 FG5      -0.2287
     21 CAU         1.5283  -14.7607   37.0661 C.ar        1 FG5       0.0691
     22 CAV         6.0389  -14.0669   37.6364 C.2         1 FG5       0.0618
     23 CAW         6.7231  -12.0336   34.5877 C.2         1 FG5       0.2522
     24 CAX         5.1629  -11.0805   33.3162 C.ar        1 FG5      -0.0094
     25 CAY         3.9335  -14.5536   37.0449 C.ar        1 FG5      -0.0477
     26 CAZ         4.6442  -11.3336   34.5856 C.ar        1 FG5       0.1269
     27 CBA         3.9533  -14.0743   38.3542 C.ar        1 FG5       0.0540
     28 SBC         8.2032  -12.7662   35.1242 S.o2        1 FG5       0.1039
     29 OXT         6.8919  -14.0480   42.0058 O.co2       1 FG5      -0.5663
     30 H1          6.3735  -12.5082   39.8602 H           1 FG5       0.0766
     31 H2          4.8524  -12.9570   40.5896 H           1 FG5       0.0766
     32 H3         -1.0985  -16.4576   36.1248 H           1 FG5       0.0573
     33 H4         -0.3969  -16.4760   37.7492 H           1 FG5       0.0573
     34 H5          0.5235  -17.1218   36.3640 H           1 FG5       0.0573
     35 H6          2.4351   -9.7241   31.9195 H           1 FG5       0.0527
     36 H7          1.5353  -10.1816   34.1319 H           1 FG5       0.0542
     37 H8          0.6341  -14.1490   38.8898 H           1 FG5       0.0453
     38 H9          4.7558  -10.2782   31.4049 H           1 FG5       0.0546
     39 H10         2.9445  -11.2082   35.8458 H           1 FG5       0.0562
     40 H11         2.6950  -13.5813   40.0012 H           1 FG5       0.0517
     41 H12         2.7711  -15.2364   35.4104 H           1 FG5       0.0403
     42 H13         5.5545  -14.8495   35.6756 H           1 FG5       0.0155
     43 H14         7.1270  -11.4781   32.5355 H           1 FG5       0.0361
     44 H15         7.7061  -12.8012   37.9001 H           1 FG5       0.0685
     45 H16         8.0118  -14.5065   38.2253 H           1 FG5       0.0685
     46 H17         8.1220  -14.9030   35.9305 H           1 FG5       0.1706
@<TRIPOS>BOND
     1     1     3  ar
     2     4     1   1
     3     1    29  ar
     4     2     4   1
     5    22     2   1
     6     2    27   1
     7    19     5   1
     8    28     6   2
     9    28     7   2
    10     9     8  ar
    11    11     8  ar
    12    12     9  ar
    13    13    10  ar
    14    21    10  ar
    15    24    11  ar
    16    26    12  ar
    17    27    13  ar
    18    14    21  ar
    19    25    14  ar
    20    22    15   2
    21    15    25   1
    22    23    16   2
    23    16    24   1
    24    18    17   1
    25    17    22   1
    26    28    18  am
    27    21    19   1
    28    23    20   1
    29    20    26   1
    30    23    28   1
    31    24    26  ar
    32    25    27  ar
    33     4    30   1
    34     4    31   1
    35     5    32   1
    36     5    33   1
    37     5    34   1
    38     8    35   1
    39     9    36   1
    40    10    37   1
    41    11    38   1
    42    12    39   1
    43    13    40   1
    44    14    41   1
    45    15    42   1
    46    16    43   1
    47    17    44   1
    48    17    45   1
    49    18    46   1
@<TRIPOS>SUBSTRUCTURE
     1  FG5      1

