@<TRIPOS>MOLECULE
3ivg_ligand_047
    46    49
SMALL
GAST_HUCK
****
This file was generated by PARSER (from files_GN.cpp)

@<TRIPOS>ATOM
      1 C           7.6600  -14.6502   34.4654 C.2         1 FG5       0.0635
      2 N           6.9966  -13.2901   36.3250 N.pl3       1 FG5      -0.2501
      3 O           8.3114  -15.6306   35.1278 O.co2       1 FG5      -0.5663
      4 CA          6.5416  -13.9626   35.1324 C.3         1 FG5       0.1031
      5 CAA         7.4124  -15.2332   42.2896 C.3         1 FG5       0.0567
      6 OAC         9.2640   -7.7296   34.5294 O.2         1 FG5      -0.1460
      7 OAD        10.8681   -9.5936   34.8610 O.2         1 FG5      -0.1460
      8 CAF        10.5326   -6.6531   41.2996 C.ar        1 FG5      -0.0767
      9 CAG        11.8268   -6.4147   40.7817 C.ar        1 FG5      -0.0734
     10 CAH         6.0644  -15.0173   39.5218 C.ar        1 FG5      -0.0489
     11 CAI         9.5387   -7.2468   40.4934 C.ar        1 FG5      -0.0712
     12 CAJ        12.1388   -6.7689   39.4506 C.ar        1 FG5      -0.0310
     13 CAK         6.1328  -14.8409   38.1251 C.ar        1 FG5      -0.0524
     14 CAL         7.2945  -12.9351   39.8742 C.ar        1 FG5      -0.0541
     15 CAM         7.9908  -11.8298   37.7027 C.2         1 FG5      -0.0688
     16 CAN         9.1244   -8.1804   38.1582 C.2         1 FG5      -0.0189
     17 CAO         8.3412  -11.4093   35.2361 C.3         1 FG5       0.0846
     18 NAQ         8.2426   -9.9962   35.3958 N.am        1 FG5      -0.2288
     19 OAR         6.5507  -14.2102   41.7606 O.3         1 FG5      -0.3308
     20 OAS        11.1919   -7.7961   37.3741 O.3         1 FG5      -0.2287
     21 CAU         6.6402  -14.0699   40.4029 C.ar        1 FG5       0.0691
     22 CAV         7.7430  -12.1503   36.3684 C.2         1 FG5       0.0618
     23 CAW         9.9711   -8.2969   37.0599 C.2         1 FG5       0.2522
     24 CAX         9.8648   -7.5921   39.1697 C.ar        1 FG5      -0.0094
     25 CAY         7.3680  -12.7892   38.4769 C.ar        1 FG5      -0.0477
     26 CAZ        11.1415   -7.3609   38.6560 C.ar        1 FG5       0.1269
     27 CBA         6.7801  -13.7028   37.5996 C.ar        1 FG5       0.0540
     28 SBC         9.5653   -8.9493   35.5050 S.o2        1 FG5       0.1039
     29 OXT         7.9201  -14.4828   33.1476 O.co2       1 FG5      -0.5663
     30 H1          5.7827  -14.7167   35.3457 H           1 FG5       0.0766
     31 H2          6.0766  -13.2381   34.4558 H           1 FG5       0.0766
     32 H3          7.2726  -15.2724   43.3706 H           1 FG5       0.0573
     33 H4          8.4611  -15.0066   42.0880 H           1 FG5       0.0573
     34 H5          7.1654  -16.2168   41.8824 H           1 FG5       0.0573
     35 H6         10.3172   -6.3992   42.2673 H           1 FG5       0.0527
     36 H7         12.5427   -5.9924   41.3763 H           1 FG5       0.0542
     37 H8          5.6089  -15.8489   39.8974 H           1 FG5       0.0453
     38 H9          8.6048   -7.4311   40.8658 H           1 FG5       0.0546
     39 H10        13.0756   -6.6070   39.0747 H           1 FG5       0.0562
     40 H11         5.7300  -15.5470   37.5063 H           1 FG5       0.0517
     41 H12         7.7088  -12.2329   40.4959 H           1 FG5       0.0403
     42 H13         8.5497  -11.0506   38.0534 H           1 FG5       0.0155
     43 H14         8.1517   -8.4721   38.2137 H           1 FG5       0.0361
     44 H15         9.3797  -11.7294   35.1449 H           1 FG5       0.0685
     45 H16         7.8398  -11.6533   34.2994 H           1 FG5       0.0685
     46 H17         7.3584   -9.5949   35.3446 H           1 FG5       0.1706
@<TRIPOS>BOND
     1     1     3  ar
     2     4     1   1
     3     1    29  ar
     4     2     4   1
     5    22     2   1
     6     2    27   1
     7    19     5   1
     8    28     6   2
     9    28     7   2
    10     9     8  ar
    11    11     8  ar
    12    12     9  ar
    13    13    10  ar
    14    21    10  ar
    15    24    11  ar
    16    26    12  ar
    17    27    13  ar
    18    14    21  ar
    19    25    14  ar
    20    22    15   2
    21    15    25   1
    22    23    16   2
    23    16    24   1
    24    18    17   1
    25    17    22   1
    26    28    18  am
    27    21    19   1
    28    23    20   1
    29    20    26   1
    30    23    28   1
    31    24    26  ar
    32    25    27  ar
    33     4    30   1
    34     4    31   1
    35     5    32   1
    36     5    33   1
    37     5    34   1
    38     8    35   1
    39     9    36   1
    40    10    37   1
    41    11    38   1
    42    12    39   1
    43    13    40   1
    44    14    41   1
    45    15    42   1
    46    16    43   1
    47    17    44   1
    48    17    45   1
    49    18    46   1
@<TRIPOS>SUBSTRUCTURE
     1  FG5      1

