@<TRIPOS>MOLECULE
3ivg_ligand_010
    46    49
SMALL
GAST_HUCK
****
This file was generated by PARSER (from files_GN.cpp)

@<TRIPOS>ATOM
      1 C           3.7525  -14.8527   37.6687 C.2         1 FG5       0.0635
      2 N           6.1112  -15.0521   37.1402 N.pl3       1 FG5      -0.2501
      3 O           3.6767  -13.5267   37.4148 O.co2       1 FG5      -0.5663
      4 CA          4.8054  -15.6677   37.0286 C.3         1 FG5       0.1031
      5 CAA        11.0130  -14.5744   41.0910 C.3         1 FG5       0.0567
      6 OAC         6.3479  -12.4725   32.0482 O.2         1 FG5      -0.1460
      7 OAD         7.1407  -11.3818   34.3136 O.2         1 FG5      -0.1460
      8 CAF         0.7802   -8.5759   33.2264 C.ar        1 FG5      -0.0767
      9 CAG         1.0262   -8.4388   34.6111 C.ar        1 FG5      -0.0734
     10 CAH         7.5524  -15.1050   40.6131 C.ar        1 FG5      -0.0489
     11 CAI         1.6428   -9.3502   32.4201 C.ar        1 FG5      -0.0712
     12 CAJ         2.1398   -9.0708   35.2052 C.ar        1 FG5      -0.0310
     13 CAK         6.5782  -15.3335   39.6162 C.ar        1 FG5      -0.0524
     14 CAL         8.9790  -13.9720   38.9936 C.ar        1 FG5      -0.0541
     15 CAM         8.0361  -14.0158   36.6466 C.2         1 FG5      -0.0688
     16 CAN         3.7504  -10.7886   32.5221 C.2         1 FG5      -0.0189
     17 CAO         6.5736  -14.5588   34.6692 C.3         1 FG5       0.0846
     18 NAQ         5.5934  -13.5802   34.3520 N.am        1 FG5      -0.2288
     19 OAR         9.6399  -14.2111   41.3407 O.3         1 FG5      -0.3308
     20 OAS         4.1043  -10.5363   34.7262 O.3         1 FG5      -0.2287
     21 CAU         8.7549  -14.4329   40.3126 C.ar        1 FG5       0.0691
     22 CAV         6.8561  -14.5440   36.1191 C.2         1 FG5       0.0618
     23 CAW         4.5727  -11.1168   33.5964 C.2         1 FG5       0.2522
     24 CAX         2.7474   -9.9770   33.0270 C.ar        1 FG5      -0.0094
     25 CAY         8.0230  -14.2533   38.0050 C.ar        1 FG5      -0.0477
     26 CAZ         2.9924   -9.8391   34.3939 C.ar        1 FG5       0.1269
     27 CBA         6.8262  -14.9119   38.2870 C.ar        1 FG5       0.0540
     28 SBC         5.9670  -12.1423   33.5562 S.o2        1 FG5       0.1039
     29 OXT         3.0270  -15.3553   38.6954 O.co2       1 FG5      -0.5663
     30 H1          4.4975  -15.7949   35.9933 H           1 FG5       0.0766
     31 H2          4.8213  -16.6633   37.4759 H           1 FG5       0.0766
     32 H3         11.5337  -14.5096   42.0346 H           1 FG5       0.0573
     33 H4         11.5002  -13.8768   40.4083 H           1 FG5       0.0573
     34 H5         11.1046  -15.5894   40.6919 H           1 FG5       0.0573
     35 H6         -0.0280   -8.1133   32.8055 H           1 FG5       0.0527
     36 H7          0.3932   -7.8820   35.1871 H           1 FG5       0.0542
     37 H8          7.3766  -15.4257   41.5636 H           1 FG5       0.0453
     38 H9          1.4667   -9.4542   31.4176 H           1 FG5       0.0546
     39 H10         2.3222   -8.9775   36.2051 H           1 FG5       0.0562
     40 H11         5.7149  -15.8298   39.8499 H           1 FG5       0.0517
     41 H12         9.8315  -13.4658   38.7512 H           1 FG5       0.0403
     42 H13         8.7945  -13.5691   36.1163 H           1 FG5       0.0155
     43 H14         3.8566  -11.0954   31.5564 H           1 FG5       0.0361
     44 H15         7.4851  -14.3876   34.0940 H           1 FG5       0.0685
     45 H16         6.2038  -15.5382   34.3759 H           1 FG5       0.0685
     46 H17         4.6876  -13.6990   34.6888 H           1 FG5       0.1706
@<TRIPOS>BOND
     1     1     3  ar
     2     4     1   1
     3     1    29  ar
     4     2     4   1
     5    22     2   1
     6     2    27   1
     7    19     5   1
     8    28     6   2
     9    28     7   2
    10     9     8  ar
    11    11     8  ar
    12    12     9  ar
    13    13    10  ar
    14    21    10  ar
    15    24    11  ar
    16    26    12  ar
    17    27    13  ar
    18    14    21  ar
    19    25    14  ar
    20    22    15   2
    21    15    25   1
    22    23    16   2
    23    16    24   1
    24    18    17   1
    25    17    22   1
    26    28    18  am
    27    21    19   1
    28    23    20   1
    29    20    26   1
    30    23    28   1
    31    24    26  ar
    32    25    27  ar
    33     4    30   1
    34     4    31   1
    35     5    32   1
    36     5    33   1
    37     5    34   1
    38     8    35   1
    39     9    36   1
    40    10    37   1
    41    11    38   1
    42    12    39   1
    43    13    40   1
    44    14    41   1
    45    15    42   1
    46    16    43   1
    47    17    44   1
    48    17    45   1
    49    18    46   1
@<TRIPOS>SUBSTRUCTURE
     1  FG5      1

