@<TRIPOS>MOLECULE
3ivg_ligand_056
    46    49
SMALL
GAST_HUCK
****
This file was generated by PARSER (from files_GN.cpp)

@<TRIPOS>ATOM
      1 C           2.4583  -14.1580   38.0636 C.2         1 FG5       0.0635
      2 N           3.7096  -12.4462   36.8663 N.pl3       1 FG5      -0.2501
      3 O           2.7640  -15.2690   38.7832 O.co2       1 FG5      -0.5663
      4 CA          3.2700  -12.9257   38.1560 C.3         1 FG5       0.1031
      5 CAA         0.4749  -10.8795   31.7655 C.3         1 FG5       0.0567
      6 OAC         3.8042  -15.3392   35.7300 O.2         1 FG5      -0.1460
      7 OAD         5.0984  -16.9857   37.0777 O.2         1 FG5      -0.1460
      8 CAF         8.1929  -17.7232   30.9785 C.ar        1 FG5      -0.0767
      9 CAG         9.0938  -18.2690   31.9210 C.ar        1 FG5      -0.0734
     10 CAH         0.9833  -10.8490   34.8373 C.ar        1 FG5      -0.0489
     11 CAI         7.0856  -16.9571   31.4026 C.ar        1 FG5      -0.0712
     12 CAJ         8.8991  -18.0520   33.3040 C.ar        1 FG5      -0.0310
     13 CAK         1.5558  -11.4643   35.9742 C.ar        1 FG5      -0.0524
     14 CAL         3.1468  -10.8617   33.7059 C.ar        1 FG5      -0.0541
     15 CAM         4.9835  -11.9156   35.0962 C.2         1 FG5      -0.0688
     16 CAN         5.9266  -16.0798   33.4941 C.2         1 FG5      -0.0189
     17 CAO         6.1623  -13.1880   36.9380 C.3         1 FG5       0.0846
     18 NAQ         5.9625  -14.5646   37.2400 N.am        1 FG5      -0.2288
     19 OAR         1.2190   -9.9737   32.5977 O.3         1 FG5      -0.3308
     20 OAS         7.3811  -16.9578   34.9620 O.3         1 FG5      -0.2287
     21 CAU         1.7662  -10.5717   33.6945 C.ar        1 FG5       0.0691
     22 CAV         4.9680  -12.5298   36.3502 C.2         1 FG5       0.0618
     23 CAW         6.2486  -16.2294   34.8387 C.2         1 FG5       0.2522
     24 CAX         6.9044  -16.7527   32.7812 C.ar        1 FG5      -0.0094
     25 CAY         3.6933  -11.4850   34.8408 C.ar        1 FG5      -0.0477
     26 CAZ         7.7942  -17.2896   33.7161 C.ar        1 FG5       0.1269
     27 CBA         2.9229  -11.8114   35.9565 C.ar        1 FG5       0.0540
     28 SBC         5.2896  -15.6902   36.1757 S.o2        1 FG5       0.1039
     29 OXT         1.3753  -14.2172   37.2513 O.co2       1 FG5      -0.5663
     30 H1          4.1211  -13.1254   38.8067 H           1 FG5       0.0766
     31 H2          2.6776  -12.1572   38.6557 H           1 FG5       0.0766
     32 H3          0.1285  -10.3362   30.8858 H           1 FG5       0.0573
     33 H4         -0.4002  -11.2611   32.2954 H           1 FG5       0.0573
     34 H5          1.0887  -11.7176   31.4253 H           1 FG5       0.0573
     35 H6          8.3394  -17.8838   29.9806 H           1 FG5       0.0527
     36 H7          9.8887  -18.8214   31.6021 H           1 FG5       0.0542
     37 H8         -0.0109  -10.6033   34.8477 H           1 FG5       0.0453
     38 H9          6.4256  -16.5624   30.7274 H           1 FG5       0.0546
     39 H10         9.5441  -18.4437   33.9920 H           1 FG5       0.0562
     40 H11         0.9760  -11.6646   36.7865 H           1 FG5       0.0517
     41 H12         3.7320  -10.6420   32.8968 H           1 FG5       0.0403
     42 H13         5.7848  -11.8215   34.4642 H           1 FG5       0.0155
     43 H14         5.1164  -15.5999   33.1046 H           1 FG5       0.0361
     44 H15         7.0248  -13.0972   36.2775 H           1 FG5       0.0685
     45 H16         6.4122  -12.6758   37.8652 H           1 FG5       0.0685
     46 H17         6.4840  -14.9289   37.9731 H           1 FG5       0.1706
@<TRIPOS>BOND
     1     1     3  ar
     2     4     1   1
     3     1    29  ar
     4     2     4   1
     5    22     2   1
     6     2    27   1
     7    19     5   1
     8    28     6   2
     9    28     7   2
    10     9     8  ar
    11    11     8  ar
    12    12     9  ar
    13    13    10  ar
    14    21    10  ar
    15    24    11  ar
    16    26    12  ar
    17    27    13  ar
    18    14    21  ar
    19    25    14  ar
    20    22    15   2
    21    15    25   1
    22    23    16   2
    23    16    24   1
    24    18    17   1
    25    17    22   1
    26    28    18  am
    27    21    19   1
    28    23    20   1
    29    20    26   1
    30    23    28   1
    31    24    26  ar
    32    25    27  ar
    33     4    30   1
    34     4    31   1
    35     5    32   1
    36     5    33   1
    37     5    34   1
    38     8    35   1
    39     9    36   1
    40    10    37   1
    41    11    38   1
    42    12    39   1
    43    13    40   1
    44    14    41   1
    45    15    42   1
    46    16    43   1
    47    17    44   1
    48    17    45   1
    49    18    46   1
@<TRIPOS>SUBSTRUCTURE
     1  FG5      1

