@<TRIPOS>MOLECULE
3ivg_ligand_004
    46    49
SMALL
GAST_HUCK
****
This file was generated by PARSER (from files_GN.cpp)

@<TRIPOS>ATOM
      1 C           2.8484  -14.6544   37.3986 C.2         1 FG5       0.0635
      2 N           3.7128  -12.6098   36.4172 N.pl3       1 FG5      -0.2501
      3 O           2.7304  -15.3180   38.5739 O.co2       1 FG5      -0.5663
      4 CA          2.7982  -13.1851   37.3804 C.3         1 FG5       0.1031
      5 CAA         2.5171   -9.6717   30.9010 C.3         1 FG5       0.0567
      6 OAC         9.1928  -14.2671   37.9230 O.2         1 FG5      -0.1460
      7 OAD         9.5777  -12.1049   36.6538 O.2         1 FG5      -0.1460
      8 CAF         6.9377  -15.2341   31.1820 C.ar        1 FG5      -0.0767
      9 CAG         6.6209  -16.4153   31.8918 C.ar        1 FG5      -0.0734
     10 CAH         2.1078  -11.7235   33.1378 C.ar        1 FG5      -0.0489
     11 CAI         7.4634  -14.1138   31.8614 C.ar        1 FG5      -0.0712
     12 CAJ         6.8252  -16.4885   33.2852 C.ar        1 FG5      -0.0310
     13 CAK         2.1479  -12.1913   34.4705 C.ar        1 FG5      -0.0524
     14 CAL         4.4942  -11.2041   33.2254 C.ar        1 FG5      -0.0541
     15 CAM         5.5573  -11.7890   35.4482 C.2         1 FG5      -0.0688
     16 CAN         8.1163  -13.2872   34.1893 C.2         1 FG5      -0.0189
     17 CAO         5.8693  -12.8580   37.7496 C.3         1 FG5       0.0846
     18 NAQ         7.2254  -12.4105   37.7416 N.am        1 FG5      -0.2288
     19 OAR         3.2931  -10.8470   31.1932 O.3         1 FG5      -0.3308
     20 OAS         7.5846  -15.1831   35.2735 O.3         1 FG5      -0.2287
     21 CAU         3.2777  -11.2276   32.5090 C.ar        1 FG5       0.0691
     22 CAV         5.0531  -12.4145   36.5903 C.2         1 FG5       0.0618
     23 CAW         8.0533  -13.9189   35.4291 C.2         1 FG5       0.2522
     24 CAX         7.6461  -14.1965   33.2545 C.ar        1 FG5      -0.0094
     25 CAY         4.5119  -11.6715   34.5524 C.ar        1 FG5      -0.0477
     26 CAZ         7.3254  -15.3607   33.9572 C.ar        1 FG5       0.1269
     27 CBA         3.3700  -12.1754   35.1749 C.ar        1 FG5       0.0540
     28 SBC         8.4841  -13.2176   36.9586 S.o2        1 FG5       0.1039
     29 OXT         2.5683  -15.3493   36.2690 O.co2       1 FG5      -0.5663
     30 H1          3.0179  -12.7989   38.3811 H           1 FG5       0.0766
     31 H2          1.7680  -12.8921   37.1626 H           1 FG5       0.0766
     32 H3          2.7262   -9.3753   29.8719 H           1 FG5       0.0573
     33 H4          2.7779   -8.8351   31.5521 H           1 FG5       0.0573
     34 H5          1.4495   -9.8784   30.9827 H           1 FG5       0.0573
     35 H6          6.7804  -15.1888   30.1739 H           1 FG5       0.0527
     36 H7          6.2480  -17.2232   31.3908 H           1 FG5       0.0542
     37 H8          1.2282  -11.7630   32.6200 H           1 FG5       0.0453
     38 H9          7.6841  -13.2565   31.3521 H           1 FG5       0.0546
     39 H10         6.6007  -17.3390   33.8039 H           1 FG5       0.0562
     40 H11         1.2990  -12.5684   34.8965 H           1 FG5       0.0517
     41 H12         5.3528  -10.8809   32.7793 H           1 FG5       0.0403
     42 H13         6.5298  -11.5189   35.2744 H           1 FG5       0.0155
     43 H14         8.4441  -12.3377   34.0034 H           1 FG5       0.0361
     44 H15         5.4174  -12.4755   38.6626 H           1 FG5       0.0685
     45 H16         5.8416  -13.9475   37.7985 H           1 FG5       0.0685
     46 H17         7.3768  -11.4881   37.9908 H           1 FG5       0.1706
@<TRIPOS>BOND
     1     1     3  ar
     2     4     1   1
     3     1    29  ar
     4     2     4   1
     5    22     2   1
     6     2    27   1
     7    19     5   1
     8    28     6   2
     9    28     7   2
    10     9     8  ar
    11    11     8  ar
    12    12     9  ar
    13    13    10  ar
    14    21    10  ar
    15    24    11  ar
    16    26    12  ar
    17    27    13  ar
    18    14    21  ar
    19    25    14  ar
    20    22    15   2
    21    15    25   1
    22    23    16   2
    23    16    24   1
    24    18    17   1
    25    17    22   1
    26    28    18  am
    27    21    19   1
    28    23    20   1
    29    20    26   1
    30    23    28   1
    31    24    26  ar
    32    25    27  ar
    33     4    30   1
    34     4    31   1
    35     5    32   1
    36     5    33   1
    37     5    34   1
    38     8    35   1
    39     9    36   1
    40    10    37   1
    41    11    38   1
    42    12    39   1
    43    13    40   1
    44    14    41   1
    45    15    42   1
    46    16    43   1
    47    17    44   1
    48    17    45   1
    49    18    46   1
@<TRIPOS>SUBSTRUCTURE
     1  FG5      1

