@<TRIPOS>MOLECULE
3ivg_ligand_074
    46    49
SMALL
GAST_HUCK
****
This file was generated by PARSER (from files_GN.cpp)

@<TRIPOS>ATOM
      1 C           3.4253  -12.3428   39.2201 C.2         1 FG5       0.0635
      2 N           1.0429  -11.8579   39.5637 N.pl3       1 FG5      -0.2501
      3 O           4.4997  -11.7725   39.8064 O.co2       1 FG5      -0.5663
      4 CA          2.1999  -12.6058   39.9987 C.3         1 FG5       0.1031
      5 CAA        -1.6918   -6.3897   40.8280 C.3         1 FG5       0.0567
      6 OAC         2.5027  -12.1570   34.1793 O.2         1 FG5      -0.1460
      7 OAD         0.2638  -13.3276   33.6318 O.2         1 FG5      -0.1460
      8 CAF         3.8977  -18.8470   35.6187 C.ar        1 FG5      -0.0767
      9 CAG         4.6611  -18.1482   36.5816 C.ar        1 FG5      -0.0734
     10 CAH        -0.0501   -9.1355   41.9396 C.ar        1 FG5      -0.0489
     11 CAI         2.9364  -18.1697   34.8389 C.ar        1 FG5      -0.0712
     12 CAJ         4.4741  -16.7624   36.7732 C.ar        1 FG5      -0.0310
     13 CAK         0.7332  -10.2233   41.4964 C.ar        1 FG5      -0.0524
     14 CAL        -1.4451   -9.3080   39.9440 C.ar        1 FG5      -0.0541
     15 CAM        -0.7191  -11.1470   38.3743 C.2         1 FG5      -0.0688
     16 CAN         1.9146  -15.8668   34.4490 C.2         1 FG5      -0.0189
     17 CAO         0.5058  -13.0703   37.3489 C.3         1 FG5       0.0846
     18 NAQ         0.7278  -12.4016   36.1106 N.am        1 FG5      -0.2288
     19 OAR        -1.8543   -7.5894   41.6125 O.3         1 FG5      -0.3308
     20 OAS         3.1613  -14.7961   35.9857 O.3         1 FG5      -0.2287
     21 CAU        -1.1228   -8.6546   41.1584 C.ar        1 FG5       0.0691
     22 CAV         0.3257  -12.0661   38.4209 C.2         1 FG5       0.0618
     23 CAW         2.1833  -14.6423   35.0579 C.2         1 FG5       0.2522
     24 CAX         2.7609  -16.7908   35.0401 C.ar        1 FG5      -0.0094
     25 CAY        -0.6400  -10.3759   39.5184 C.ar        1 FG5      -0.0477
     26 CAZ         3.5176  -16.1002   35.9868 C.ar        1 FG5       0.1269
     27 CBA         0.4522  -10.8422   40.2569 C.ar        1 FG5       0.0540
     28 SBC         1.3880  -13.1369   34.7453 S.o2        1 FG5       0.1039
     29 OXT         3.5649  -12.8224   37.9628 O.co2       1 FG5      -0.5663
     30 H1          2.4232  -12.3897   41.0423 H           1 FG5       0.0766
     31 H2          1.9897  -13.6730   39.9671 H           1 FG5       0.0766
     32 H3         -2.2821   -5.5967   41.2858 H           1 FG5       0.0573
     33 H4         -2.0528   -6.5262   39.8056 H           1 FG5       0.0573
     34 H5         -0.6469   -6.0684   40.8058 H           1 FG5       0.0573
     35 H6          4.0439  -19.8517   35.4875 H           1 FG5       0.0527
     36 H7          5.3516  -18.6496   37.1464 H           1 FG5       0.0542
     37 H8          0.1650   -8.6856   42.8352 H           1 FG5       0.0453
     38 H9          2.3817  -18.6730   34.1414 H           1 FG5       0.0546
     39 H10         5.0181  -16.2497   37.4694 H           1 FG5       0.0562
     40 H11         1.5050  -10.5457   42.0799 H           1 FG5       0.0517
     41 H12        -2.2334   -8.9942   39.3731 H           1 FG5       0.0403
     42 H13        -1.4219  -11.0477   37.6387 H           1 FG5       0.0155
     43 H14         1.2231  -16.0500   33.7224 H           1 FG5       0.0361
     44 H15         1.3323  -13.7342   37.5836 H           1 FG5       0.0685
     45 H16        -0.3998  -13.6714   37.2707 H           1 FG5       0.0685
     46 H17         0.2005  -11.6034   35.9441 H           1 FG5       0.1706
@<TRIPOS>BOND
     1     1     3  ar
     2     4     1   1
     3     1    29  ar
     4     2     4   1
     5    22     2   1
     6     2    27   1
     7    19     5   1
     8    28     6   2
     9    28     7   2
    10     9     8  ar
    11    11     8  ar
    12    12     9  ar
    13    13    10  ar
    14    21    10  ar
    15    24    11  ar
    16    26    12  ar
    17    27    13  ar
    18    14    21  ar
    19    25    14  ar
    20    22    15   2
    21    15    25   1
    22    23    16   2
    23    16    24   1
    24    18    17   1
    25    17    22   1
    26    28    18  am
    27    21    19   1
    28    23    20   1
    29    20    26   1
    30    23    28   1
    31    24    26  ar
    32    25    27  ar
    33     4    30   1
    34     4    31   1
    35     5    32   1
    36     5    33   1
    37     5    34   1
    38     8    35   1
    39     9    36   1
    40    10    37   1
    41    11    38   1
    42    12    39   1
    43    13    40   1
    44    14    41   1
    45    15    42   1
    46    16    43   1
    47    17    44   1
    48    17    45   1
    49    18    46   1
@<TRIPOS>SUBSTRUCTURE
     1  FG5      1

