@<TRIPOS>MOLECULE
3ivg_ligand_069
    46    49
SMALL
GAST_HUCK
****
This file was generated by PARSER (from files_GN.cpp)

@<TRIPOS>ATOM
      1 C           2.3739  -14.4383   37.2967 C.2         1 FG5       0.0635
      2 N           1.4676  -12.3082   38.1669 N.pl3       1 FG5      -0.2501
      3 O           3.5096  -14.8346   36.6878 O.co2       1 FG5      -0.5663
      4 CA          1.7885  -13.1210   37.0115 C.3         1 FG5       0.1031
      5 CAA        -2.1296   -7.1957   39.0885 C.3         1 FG5       0.0567
      6 OAC         5.7886  -14.5555   38.9816 O.2         1 FG5      -0.1460
      7 OAD         7.1364  -12.5064   39.7034 O.2         1 FG5      -0.1460
      8 CAF         6.8232  -11.6081   32.7799 C.ar        1 FG5      -0.0767
      9 CAG         5.4368  -11.3548   32.8373 C.ar        1 FG5      -0.0734
     10 CAH        -1.4487  -10.0384   37.4605 C.ar        1 FG5      -0.0489
     11 CAI         7.5254  -12.0298   33.9273 C.ar        1 FG5      -0.0712
     12 CAJ         4.7314  -11.5167   34.0507 C.ar        1 FG5      -0.0310
     13 CAK        -0.4670  -11.0062   37.1657 C.ar        1 FG5      -0.0524
     14 CAL        -0.5975   -9.8388   39.7420 C.ar        1 FG5      -0.0541
     15 CAM         1.3948  -11.3279   40.1846 C.2         1 FG5      -0.0688
     16 CAN         7.1966  -12.5898   36.4030 C.2         1 FG5      -0.0189
     17 CAO         3.3140  -12.9155   39.8971 C.3         1 FG5       0.0846
     18 NAQ         4.4739  -12.2315   39.4386 N.am        1 FG5      -0.2288
     19 OAR        -2.5270   -8.5744   39.0220 O.3         1 FG5      -0.3308
     20 OAS         4.9897  -12.1675   36.4365 O.3         1 FG5      -0.2287
     21 CAU        -1.5143   -9.4509   38.7437 C.ar        1 FG5       0.0691
     22 CAV         2.0892  -12.2394   39.3866 C.2         1 FG5       0.0618
     23 CAW         6.0410  -12.5626   37.1864 C.2         1 FG5       0.2522
     24 CAX         6.8131  -12.1893   35.1315 C.ar        1 FG5      -0.0094
     25 CAY         0.3735  -10.8064   39.4245 C.ar        1 FG5      -0.0477
     26 CAZ         5.4428  -11.9336   35.1873 C.ar        1 FG5       0.1269
     27 CBA         0.4465  -11.4063   38.1680 C.ar        1 FG5       0.0540
     28 SBC         5.8710  -12.9735   38.8593 S.o2        1 FG5       0.1039
     29 OXT         1.7556  -15.2964   38.1459 O.co2       1 FG5      -0.5663
     30 H1          0.8881  -13.3374   36.4335 H           1 FG5       0.0766
     31 H2          2.4467  -12.5511   36.3619 H           1 FG5       0.0766
     32 H3         -3.0209   -6.5958   39.2763 H           1 FG5       0.0573
     33 H4         -1.6825   -6.8650   38.1476 H           1 FG5       0.0573
     34 H5         -1.4285   -7.0248   39.9089 H           1 FG5       0.0573
     35 H6          7.3196  -11.4882   31.8947 H           1 FG5       0.0527
     36 H7          4.9334  -11.0557   31.9996 H           1 FG5       0.0542
     37 H8         -2.1180   -9.7663   36.7379 H           1 FG5       0.0453
     38 H9          8.5285  -12.2229   33.8912 H           1 FG5       0.0546
     39 H10         3.7247  -11.3389   34.1045 H           1 FG5       0.0562
     40 H11        -0.4205  -11.3986   36.2250 H           1 FG5       0.0517
     41 H12        -0.6321   -9.4335   40.6776 H           1 FG5       0.0403
     42 H13         1.6288  -11.0566   41.1423 H           1 FG5       0.0155
     43 H14         8.1347  -12.8603   36.7028 H           1 FG5       0.0361
     44 H15         3.3417  -12.8740   40.9882 H           1 FG5       0.0685
     45 H16         3.3024  -13.9648   39.6200 H           1 FG5       0.0685
     46 H17         4.5089  -11.2706   39.5756 H           1 FG5       0.1706
@<TRIPOS>BOND
     1     1     3  ar
     2     4     1   1
     3     1    29  ar
     4     2     4   1
     5    22     2   1
     6     2    27   1
     7    19     5   1
     8    28     6   2
     9    28     7   2
    10     9     8  ar
    11    11     8  ar
    12    12     9  ar
    13    13    10  ar
    14    21    10  ar
    15    24    11  ar
    16    26    12  ar
    17    27    13  ar
    18    14    21  ar
    19    25    14  ar
    20    22    15   2
    21    15    25   1
    22    23    16   2
    23    16    24   1
    24    18    17   1
    25    17    22   1
    26    28    18  am
    27    21    19   1
    28    23    20   1
    29    20    26   1
    30    23    28   1
    31    24    26  ar
    32    25    27  ar
    33     4    30   1
    34     4    31   1
    35     5    32   1
    36     5    33   1
    37     5    34   1
    38     8    35   1
    39     9    36   1
    40    10    37   1
    41    11    38   1
    42    12    39   1
    43    13    40   1
    44    14    41   1
    45    15    42   1
    46    16    43   1
    47    17    44   1
    48    17    45   1
    49    18    46   1
@<TRIPOS>SUBSTRUCTURE
     1  FG5      1

