@<TRIPOS>MOLECULE
3ivg_ligand_071
    46    49
SMALL
GAST_HUCK
****
This file was generated by PARSER (from files_GN.cpp)

@<TRIPOS>ATOM
      1 C           7.2378  -14.7651   42.0433 C.2         1 FG5       0.0635
      2 N           7.4877  -13.8790   39.7661 N.pl3       1 FG5      -0.2501
      3 O           7.0044  -16.0574   41.7194 O.co2       1 FG5      -0.5663
      4 CA          7.9655  -13.8628   41.1292 C.3         1 FG5       0.1031
      5 CAA         2.3539  -11.9110   36.8460 C.3         1 FG5       0.0567
      6 OAC        11.6302  -12.2823   35.5596 O.2         1 FG5      -0.1460
      7 OAD        10.6634  -11.0719   37.5341 O.2         1 FG5      -0.1460
      8 CAF         5.3340  -11.7577   32.7457 C.ar        1 FG5      -0.0767
      9 CAG         5.0535  -10.6392   33.5594 C.ar        1 FG5      -0.0734
     10 CAH         3.7820  -13.3784   39.3651 C.ar        1 FG5      -0.0489
     11 CAI         6.4956  -12.5292   32.9646 C.ar        1 FG5      -0.0712
     12 CAJ         5.9316  -10.2785   34.6028 C.ar        1 FG5      -0.0310
     13 CAK         4.9957  -13.5157   40.0737 C.ar        1 FG5      -0.0524
     14 CAL         4.9592  -13.6515   37.2401 C.ar        1 FG5      -0.0541
     15 CAM         7.4411  -14.0331   37.5339 C.2         1 FG5      -0.0688
     16 CAN         8.5688  -12.6771   34.4369 C.2         1 FG5      -0.0189
     17 CAO         9.7582  -13.9615   38.5963 C.3         1 FG5       0.0846
     18 NAQ        10.3150  -13.7461   37.2999 N.am        1 FG5      -0.2288
     19 OAR         2.5749  -13.2603   37.2873 O.3         1 FG5      -0.3308
     20 OAS         8.0734  -10.9090   35.7368 O.3         1 FG5      -0.2287
     21 CAU         3.7609  -13.4170   37.9498 C.ar        1 FG5       0.0691
     22 CAV         8.2709  -13.9829   38.6526 C.2         1 FG5       0.0618
     23 CAW         8.9736  -11.9052   35.5224 C.2         1 FG5       0.2522
     24 CAX         7.3676  -12.1443   33.9970 C.ar        1 FG5      -0.0094
     25 CAY         6.1500  -13.8054   37.9672 C.ar        1 FG5      -0.0477
     26 CAZ         7.0924  -11.0447   34.8108 C.ar        1 FG5       0.1269
     27 CBA         6.1970  -13.7222   39.3612 C.ar        1 FG5       0.0540
     28 SBC        10.3579  -12.2504   36.5114 S.o2        1 FG5       0.1039
     29 OXT         6.6782  -14.2706   43.1714 O.co2       1 FG5      -0.5663
     30 H1          9.0122  -14.1608   41.1848 H           1 FG5       0.0766
     31 H2          7.8960  -12.8398   41.4995 H           1 FG5       0.0766
     32 H3          1.3579  -11.8608   36.4008 H           1 FG5       0.0573
     33 H4          3.0841  -11.6238   36.0846 H           1 FG5       0.0573
     34 H5          2.3927  -11.2012   37.6766 H           1 FG5       0.0573
     35 H6          4.6960  -12.0009   31.9867 H           1 FG5       0.0527
     36 H7          4.2202  -10.0742   33.3773 H           1 FG5       0.0542
     37 H8          2.9098  -13.2462   39.8833 H           1 FG5       0.0453
     38 H9          6.7044  -13.3381   32.3750 H           1 FG5       0.0546
     39 H10         5.7452   -9.4527   35.1711 H           1 FG5       0.0562
     40 H11         4.9881  -13.4750   41.0902 H           1 FG5       0.0517
     41 H12         4.9625  -13.6909   36.2181 H           1 FG5       0.0403
     42 H13         7.7214  -14.1786   36.5682 H           1 FG5       0.0155
     43 H14         9.0333  -13.5073   34.0689 H           1 FG5       0.0361
     44 H15        10.1396  -13.1830   39.2625 H           1 FG5       0.0685
     45 H16        10.1279  -14.9211   38.9664 H           1 FG5       0.0685
     46 H17        10.5118  -14.5281   36.7696 H           1 FG5       0.1706
@<TRIPOS>BOND
     1     1     3  ar
     2     4     1   1
     3     1    29  ar
     4     2     4   1
     5    22     2   1
     6     2    27   1
     7    19     5   1
     8    28     6   2
     9    28     7   2
    10     9     8  ar
    11    11     8  ar
    12    12     9  ar
    13    13    10  ar
    14    21    10  ar
    15    24    11  ar
    16    26    12  ar
    17    27    13  ar
    18    14    21  ar
    19    25    14  ar
    20    22    15   2
    21    15    25   1
    22    23    16   2
    23    16    24   1
    24    18    17   1
    25    17    22   1
    26    28    18  am
    27    21    19   1
    28    23    20   1
    29    20    26   1
    30    23    28   1
    31    24    26  ar
    32    25    27  ar
    33     4    30   1
    34     4    31   1
    35     5    32   1
    36     5    33   1
    37     5    34   1
    38     8    35   1
    39     9    36   1
    40    10    37   1
    41    11    38   1
    42    12    39   1
    43    13    40   1
    44    14    41   1
    45    15    42   1
    46    16    43   1
    47    17    44   1
    48    17    45   1
    49    18    46   1
@<TRIPOS>SUBSTRUCTURE
     1  FG5      1

