@<TRIPOS>MOLECULE
3ivg_ligand_070
    46    49
SMALL
GAST_HUCK
****
This file was generated by PARSER (from files_GN.cpp)

@<TRIPOS>ATOM
      1 C          10.4461  -10.0612   36.7445 C.2         1 FG5       0.0635
      2 N           9.1273  -12.1088   37.0479 N.pl3       1 FG5      -0.2501
      3 O          10.0309   -9.4457   37.8660 O.co2       1 FG5      -0.5663
      4 CA         10.3821  -11.5325   36.6190 C.3         1 FG5       0.1031
      5 CAA         7.1175  -15.3189   42.0455 C.3         1 FG5       0.0567
      6 OAC         6.7762  -12.6072   31.8663 O.2         1 FG5      -0.1460
      7 OAD         5.1388  -12.0526   33.6570 O.2         1 FG5      -0.1460
      8 CAF         6.4550  -18.5481   35.6275 C.ar        1 FG5      -0.0767
      9 CAG         7.6351  -18.6620   34.8576 C.ar        1 FG5      -0.0734
     10 CAH         9.3961  -14.5474   39.8957 C.ar        1 FG5      -0.0489
     11 CAI         5.7402  -17.3315   35.6639 C.ar        1 FG5      -0.0712
     12 CAJ         8.1179  -17.5594   34.1223 C.ar        1 FG5      -0.0310
     13 CAK         9.8650  -13.5999   38.9625 C.ar        1 FG5      -0.0524
     14 CAL         7.1337  -14.3540   38.9930 C.ar        1 FG5      -0.0541
     15 CAM         6.9561  -12.6703   37.1176 C.2         1 FG5      -0.0688
     16 CAN         5.7802  -14.9408   34.7753 C.2         1 FG5      -0.0189
     17 CAO         7.5605  -10.9619   35.3710 C.3         1 FG5       0.0846
     18 NAQ         7.7443  -11.5817   34.1025 N.am        1 FG5      -0.2288
     19 OAR         7.5898  -15.8695   40.8033 O.3         1 FG5      -0.3308
     20 OAS         7.6798  -15.1597   33.5904 O.3         1 FG5      -0.2287
     21 CAU         8.0325  -14.9227   39.9194 C.ar        1 FG5       0.0691
     22 CAV         7.9076  -11.8762   36.4817 C.2         1 FG5       0.0618
     23 CAW         6.6971  -14.2928   33.9509 C.2         1 FG5       0.2522
     24 CAX         6.2361  -16.2417   34.9310 C.ar        1 FG5      -0.0094
     25 CAY         7.6158  -13.3987   38.0863 C.ar        1 FG5      -0.0477
     26 CAZ         7.4062  -16.3483   34.1779 C.ar        1 FG5       0.1269
     27 CBA         8.9601  -13.0193   38.0434 C.ar        1 FG5       0.0540
     28 SBC         6.6045  -12.6389   33.4453 S.o2        1 FG5       0.1039
     29 OXT        10.8527   -9.3027   35.7029 O.co2       1 FG5      -0.5663
     30 H1         11.2174  -11.9264   37.1946 H           1 FG5       0.0766
     31 H2         10.5548  -11.8204   35.5791 H           1 FG5       0.0766
     32 H3          6.7722  -16.1425   42.6703 H           1 FG5       0.0573
     33 H4          6.2786  -14.6361   41.8877 H           1 FG5       0.0573
     34 H5          7.9175  -14.7984   42.5775 H           1 FG5       0.0573
     35 H6          6.1167  -19.3533   36.1603 H           1 FG5       0.0527
     36 H7          8.1437  -19.5492   34.8356 H           1 FG5       0.0542
     37 H8         10.0482  -14.9619   40.5673 H           1 FG5       0.0453
     38 H9          4.8836  -17.2472   36.2165 H           1 FG5       0.0546
     39 H10         8.9713  -17.6356   33.5674 H           1 FG5       0.0562
     40 H11        10.8499  -13.3346   38.9735 H           1 FG5       0.0517
     41 H12         6.1460  -14.6248   38.9890 H           1 FG5       0.0403
     42 H13         5.9570  -12.7169   36.9060 H           1 FG5       0.0155
     43 H14         4.9376  -14.5379   35.1928 H           1 FG5       0.0361
     44 H15         6.5327  -10.6143   35.4690 H           1 FG5       0.0685
     45 H16         8.1841  -10.0708   35.4133 H           1 FG5       0.0685
     46 H17         8.5405  -11.3792   33.6023 H           1 FG5       0.1706
@<TRIPOS>BOND
     1     1     3  ar
     2     4     1   1
     3     1    29  ar
     4     2     4   1
     5    22     2   1
     6     2    27   1
     7    19     5   1
     8    28     6   2
     9    28     7   2
    10     9     8  ar
    11    11     8  ar
    12    12     9  ar
    13    13    10  ar
    14    21    10  ar
    15    24    11  ar
    16    26    12  ar
    17    27    13  ar
    18    14    21  ar
    19    25    14  ar
    20    22    15   2
    21    15    25   1
    22    23    16   2
    23    16    24   1
    24    18    17   1
    25    17    22   1
    26    28    18  am
    27    21    19   1
    28    23    20   1
    29    20    26   1
    30    23    28   1
    31    24    26  ar
    32    25    27  ar
    33     4    30   1
    34     4    31   1
    35     5    32   1
    36     5    33   1
    37     5    34   1
    38     8    35   1
    39     9    36   1
    40    10    37   1
    41    11    38   1
    42    12    39   1
    43    13    40   1
    44    14    41   1
    45    15    42   1
    46    16    43   1
    47    17    44   1
    48    17    45   1
    49    18    46   1
@<TRIPOS>SUBSTRUCTURE
     1  FG5      1

