@<TRIPOS>MOLECULE
3ivg_ligand_042
    46    49
SMALL
GAST_HUCK
****
This file was generated by PARSER (from files_GN.cpp)

@<TRIPOS>ATOM
      1 C           3.6934  -14.3718   38.2248 C.2         1 FG5       0.0635
      2 N           4.4534  -14.2130   35.9468 N.pl3       1 FG5      -0.2501
      3 O           2.9904  -15.4064   38.7302 O.co2       1 FG5      -0.5663
      4 CA          3.4144  -13.8491   36.8766 C.3         1 FG5       0.1031
      5 CAA        10.5444  -12.5273   36.0717 C.3         1 FG5       0.0567
      6 OAC         4.6250  -17.1446   37.6597 O.2         1 FG5      -0.1460
      7 OAD         6.4435  -17.4069   35.8661 O.2         1 FG5      -0.1460
      8 CAF         5.4378  -24.0682   37.5683 C.ar        1 FG5      -0.0767
      9 CAG         6.1726  -23.5818   38.6734 C.ar        1 FG5      -0.0734
     10 CAH         7.5908  -12.1773   36.3024 C.ar        1 FG5      -0.0489
     11 CAI         4.8764  -23.1689   36.6323 C.ar        1 FG5      -0.0712
     12 CAJ         6.3563  -22.1957   38.8566 C.ar        1 FG5      -0.0310
     13 CAK         6.2672  -12.5706   36.5977 C.ar        1 FG5      -0.0524
     14 CAL         7.7190  -13.8504   34.5287 C.ar        1 FG5      -0.0541
     15 CAM         5.5927  -15.2069   34.2877 C.2         1 FG5      -0.0688
     16 CAN         4.6631  -20.6849   36.0948 C.2         1 FG5      -0.0189
     17 CAO         3.3785  -16.2670   34.8273 C.3         1 FG5       0.0846
     18 NAQ         3.8524  -17.5829   35.1128 N.am        1 FG5      -0.2288
     19 OAR         9.6145  -12.4745   34.9749 O.3         1 FG5      -0.3308
     20 OAS         5.8479  -19.9653   37.8657 O.3         1 FG5      -0.2287
     21 CAU         8.3312  -12.8316   35.2882 C.ar        1 FG5       0.0691
     22 CAV         4.4062  -15.2182   35.0245 C.2         1 FG5       0.0618
     23 CAW         5.1596  -19.5703   36.7649 C.2         1 FG5       0.2522
     24 CAX         5.0698  -21.7907   36.8232 C.ar        1 FG5      -0.0094
     25 CAY         6.3985  -14.2200   34.8292 C.ar        1 FG5      -0.0477
     26 CAZ         5.7986  -21.3156   37.9150 C.ar        1 FG5       0.1269
     27 CBA         5.6659  -13.6106   35.8507 C.ar        1 FG5       0.0540
     28 SBC         4.9981  -17.9077   36.3139 S.o2        1 FG5       0.1039
     29 OXT         4.4716  -13.6574   39.0681 O.co2       1 FG5      -0.5663
     30 H1          3.3177  -12.7607   36.9299 H           1 FG5       0.0766
     31 H2          2.4445  -14.2087   36.5304 H           1 FG5       0.0766
     32 H3         11.5527  -12.4373   35.6636 H           1 FG5       0.0573
     33 H4         10.4801  -13.4696   36.6265 H           1 FG5       0.0573
     34 H5         10.3752  -11.6927   36.7571 H           1 FG5       0.0573
     35 H6          5.3071  -25.0740   37.4485 H           1 FG5       0.0527
     36 H7          6.5697  -24.2397   39.3499 H           1 FG5       0.0542
     37 H8          8.0221  -11.4260   36.8366 H           1 FG5       0.0453
     38 H9          4.3447  -23.5172   35.8344 H           1 FG5       0.0546
     39 H10         6.8819  -21.8368   39.6542 H           1 FG5       0.0562
     40 H11         5.7547  -12.1112   37.3510 H           1 FG5       0.0517
     41 H12         8.2296  -14.3285   33.7785 H           1 FG5       0.0403
     42 H13         5.8566  -15.8544   33.5444 H           1 FG5       0.0155
     43 H14         4.1162  -20.6893   35.2332 H           1 FG5       0.0361
     44 H15         2.4986  -16.0941   35.4476 H           1 FG5       0.0685
     45 H16         3.0550  -16.2380   33.7857 H           1 FG5       0.0685
     46 H17         3.3064  -18.3290   34.8127 H           1 FG5       0.1706
@<TRIPOS>BOND
     1     1     3  ar
     2     4     1   1
     3     1    29  ar
     4     2     4   1
     5    22     2   1
     6     2    27   1
     7    19     5   1
     8    28     6   2
     9    28     7   2
    10     9     8  ar
    11    11     8  ar
    12    12     9  ar
    13    13    10  ar
    14    21    10  ar
    15    24    11  ar
    16    26    12  ar
    17    27    13  ar
    18    14    21  ar
    19    25    14  ar
    20    22    15   2
    21    15    25   1
    22    23    16   2
    23    16    24   1
    24    18    17   1
    25    17    22   1
    26    28    18  am
    27    21    19   1
    28    23    20   1
    29    20    26   1
    30    23    28   1
    31    24    26  ar
    32    25    27  ar
    33     4    30   1
    34     4    31   1
    35     5    32   1
    36     5    33   1
    37     5    34   1
    38     8    35   1
    39     9    36   1
    40    10    37   1
    41    11    38   1
    42    12    39   1
    43    13    40   1
    44    14    41   1
    45    15    42   1
    46    16    43   1
    47    17    44   1
    48    17    45   1
    49    18    46   1
@<TRIPOS>SUBSTRUCTURE
     1  FG5      1

