@<TRIPOS>MOLECULE
3ivg_ligand_003
    46    49
SMALL
GAST_HUCK
****
This file was generated by PARSER (from files_GN.cpp)

@<TRIPOS>ATOM
      1 C           8.1764  -14.4361   41.4753 C.2         1 FG5       0.0635
      2 N           7.7630  -14.7837   39.1259 N.pl3       1 FG5      -0.2501
      3 O           7.2394  -13.8549   42.2525 O.co2       1 FG5      -0.5663
      4 CA          7.7853  -15.3936   40.4304 C.3         1 FG5       0.1031
      5 CAA        11.4313  -11.1225   35.6368 C.3         1 FG5       0.0567
      6 OAC         2.1171  -15.2013   38.4138 O.2         1 FG5      -0.1460
      7 OAD         2.9696  -13.5585   36.5613 O.2         1 FG5      -0.1460
      8 CAF        -0.1073   -9.1703   41.1477 C.ar        1 FG5      -0.0767
      9 CAG        -0.6309   -8.9292   39.8579 C.ar        1 FG5      -0.0734
     10 CAH        11.1586  -13.6041   38.0277 C.ar        1 FG5      -0.0489
     11 CAI         0.7961  -10.2332   41.3657 C.ar        1 FG5      -0.0712
     12 CAJ        -0.2591   -9.7483   38.7707 C.ar        1 FG5      -0.0310
     13 CAK        10.2181  -14.2069   38.8908 C.ar        1 FG5      -0.0524
     14 CAL         9.4140  -13.2101   36.3709 C.ar        1 FG5      -0.0541
     15 CAM         7.1301  -13.9925   37.1271 C.2         1 FG5      -0.0688
     16 CAN         2.0132  -12.1315   40.1570 C.2         1 FG5      -0.0189
     17 CAO         5.2758  -15.0370   38.4474 C.3         1 FG5       0.0846
     18 NAQ         4.4396  -13.9217   38.7204 N.am        1 FG5      -0.2288
     19 OAR        11.7038  -12.4991   35.9656 O.3         1 FG5      -0.3308
     20 OAS         1.1451  -11.7099   38.1301 O.3         1 FG5      -0.2287
     21 CAU        10.7593  -13.0790   36.7789 C.ar        1 FG5       0.0691
     22 CAV         6.6913  -14.6234   38.2935 C.2         1 FG5       0.0618
     23 CAW         1.9829  -12.5198   38.8206 C.2         1 FG5       0.2522
     24 CAX         1.1605  -11.0423   40.2729 C.ar        1 FG5      -0.0094
     25 CAY         8.4894  -13.7849   37.2547 C.ar        1 FG5      -0.0477
     26 CAZ         0.6405  -10.8036   38.9991 C.ar        1 FG5       0.1269
     27 CBA         8.8629  -14.2784   38.5040 C.ar        1 FG5       0.0540
     28 SBC         2.8687  -13.8310   38.1243 S.o2        1 FG5       0.1039
     29 OXT         9.4800  -14.2184   41.7646 O.co2       1 FG5      -0.5663
     30 H1          6.8314  -15.8313   40.7156 H           1 FG5       0.0766
     31 H2          8.5009  -16.2141   40.4121 H           1 FG5       0.0766
     32 H3         12.2506  -10.7355   35.0313 H           1 FG5       0.0573
     33 H4         11.3507  -10.5059   36.5348 H           1 FG5       0.0573
     34 H5         10.5120  -11.0333   35.0527 H           1 FG5       0.0573
     35 H6         -0.3810   -8.5706   41.9274 H           1 FG5       0.0527
     36 H7         -1.2827   -8.1578   39.7089 H           1 FG5       0.0542
     37 H8         12.1356  -13.5524   38.3135 H           1 FG5       0.0453
     38 H9          1.1815  -10.4076   42.2969 H           1 FG5       0.0546
     39 H10        -0.6322   -9.5807   37.8343 H           1 FG5       0.0562
     40 H11        10.5334  -14.5839   39.7838 H           1 FG5       0.0517
     41 H12         9.1181  -12.8783   35.4522 H           1 FG5       0.0403
     42 H13         6.5620  -13.7477   36.3184 H           1 FG5       0.0155
     43 H14         2.5628  -12.5596   40.9034 H           1 FG5       0.0361
     44 H15         4.9787  -15.5497   37.5272 H           1 FG5       0.0685
     45 H16         5.1475  -15.7439   39.2615 H           1 FG5       0.0685
     46 H17         4.6450  -13.4011   39.5094 H           1 FG5       0.1706
@<TRIPOS>BOND
     1     1     3  ar
     2     4     1   1
     3     1    29  ar
     4     2     4   1
     5    22     2   1
     6     2    27   1
     7    19     5   1
     8    28     6   2
     9    28     7   2
    10     9     8  ar
    11    11     8  ar
    12    12     9  ar
    13    13    10  ar
    14    21    10  ar
    15    24    11  ar
    16    26    12  ar
    17    27    13  ar
    18    14    21  ar
    19    25    14  ar
    20    22    15   2
    21    15    25   1
    22    23    16   2
    23    16    24   1
    24    18    17   1
    25    17    22   1
    26    28    18  am
    27    21    19   1
    28    23    20   1
    29    20    26   1
    30    23    28   1
    31    24    26  ar
    32    25    27  ar
    33     4    30   1
    34     4    31   1
    35     5    32   1
    36     5    33   1
    37     5    34   1
    38     8    35   1
    39     9    36   1
    40    10    37   1
    41    11    38   1
    42    12    39   1
    43    13    40   1
    44    14    41   1
    45    15    42   1
    46    16    43   1
    47    17    44   1
    48    17    45   1
    49    18    46   1
@<TRIPOS>SUBSTRUCTURE
     1  FG5      1

