@<TRIPOS>MOLECULE
3ivg_ligand_055
    46    49
SMALL
GAST_HUCK
****
This file was generated by PARSER (from files_GN.cpp)

@<TRIPOS>ATOM
      1 C           7.3760  -14.0057   40.4351 C.2         1 FG5       0.0635
      2 N           6.6679  -12.8107   38.4141 N.pl3       1 FG5      -0.2501
      3 O           7.1105  -13.8722   41.7581 O.co2       1 FG5      -0.5663
      4 CA          7.5314  -12.8165   39.5735 C.3         1 FG5       0.1031
      5 CAA         7.0617  -11.2020   32.3495 C.3         1 FG5       0.0567
      6 OAC         0.6447  -13.1340   40.2032 O.2         1 FG5      -0.1460
      7 OAD         1.9421  -14.8761   38.8759 O.2         1 FG5      -0.1460
      8 CAF        -0.5557  -10.3474   33.9683 C.ar        1 FG5      -0.0767
      9 CAG         0.0602  -11.4287   33.2933 C.ar        1 FG5      -0.0734
     10 CAH         8.4596  -12.4776   35.1159 C.ar        1 FG5      -0.0489
     11 CAI        -0.5102  -10.2635   35.3753 C.ar        1 FG5      -0.0712
     12 CAJ         0.7180  -12.4418   34.0210 C.ar        1 FG5      -0.0310
     13 CAK         8.3506  -12.5730   36.5218 C.ar        1 FG5      -0.0524
     14 CAL         6.0349  -12.6560   34.8978 C.ar        1 FG5      -0.0541
     15 CAM         4.8468  -12.8676   37.1110 C.2         1 FG5      -0.0688
     16 CAN         0.3717  -11.4704   37.4416 C.2         1 FG5      -0.0189
     17 CAO         4.4269  -13.1324   39.6029 C.3         1 FG5       0.0846
     18 NAQ         3.1385  -12.5309   39.5277 N.am        1 FG5      -0.2288
     19 OAR         7.4299  -12.4622   32.9382 O.3         1 FG5      -0.3308
     20 OAS         1.3192  -13.1784   36.3298 O.3         1 FG5      -0.2287
     21 CAU         7.3063  -12.5026   34.3006 C.ar        1 FG5       0.0691
     22 CAV         5.3029  -12.8833   38.4297 C.2         1 FG5       0.0618
     23 CAW         1.1015  -12.6507   37.5611 C.2         1 FG5       0.2522
     24 CAX         0.1515  -11.2797   36.0864 C.ar        1 FG5      -0.0094
     25 CAY         5.9525  -12.7357   36.2958 C.ar        1 FG5      -0.0477
     26 CAZ         0.7505  -12.3532   35.4240 C.ar        1 FG5       0.1269
     27 CBA         7.0779  -12.7026   37.1195 C.ar        1 FG5       0.0540
     28 SBC         1.7190  -13.3087   39.0421 S.o2        1 FG5       0.1039
     29 OXT         7.5267  -15.2488   39.9254 O.co2       1 FG5      -0.5663
     30 H1          8.5833  -12.7746   39.2925 H           1 FG5       0.0766
     31 H2          7.3251  -11.9148   40.1569 H           1 FG5       0.0766
     32 H3          7.1945  -11.2797   31.2707 H           1 FG5       0.0573
     33 H4          7.6990  -10.3927   32.7136 H           1 FG5       0.0573
     34 H5          6.0138  -10.9606   32.5454 H           1 FG5       0.0573
     35 H6         -1.0349   -9.6210   33.4321 H           1 FG5       0.0527
     36 H7          0.0268  -11.4752   32.2729 H           1 FG5       0.0542
     37 H8          9.3844  -12.3939   34.6865 H           1 FG5       0.0453
     38 H9         -0.9506   -9.4822   35.8673 H           1 FG5       0.0546
     39 H10         1.1698  -13.2242   33.5412 H           1 FG5       0.0562
     40 H11         9.2009  -12.5467   37.0897 H           1 FG5       0.0517
     41 H12         5.1908  -12.6974   34.3227 H           1 FG5       0.0403
     42 H13         3.8866  -12.9648   36.7853 H           1 FG5       0.0155
     43 H14         0.0706  -10.8526   38.1961 H           1 FG5       0.0361
     44 H15         4.3519  -14.2117   39.7311 H           1 FG5       0.0685
     45 H16         4.8925  -12.7281   40.4964 H           1 FG5       0.0685
     46 H17         3.0732  -11.5817   39.7180 H           1 FG5       0.1706
@<TRIPOS>BOND
     1     1     3  ar
     2     4     1   1
     3     1    29  ar
     4     2     4   1
     5    22     2   1
     6     2    27   1
     7    19     5   1
     8    28     6   2
     9    28     7   2
    10     9     8  ar
    11    11     8  ar
    12    12     9  ar
    13    13    10  ar
    14    21    10  ar
    15    24    11  ar
    16    26    12  ar
    17    27    13  ar
    18    14    21  ar
    19    25    14  ar
    20    22    15   2
    21    15    25   1
    22    23    16   2
    23    16    24   1
    24    18    17   1
    25    17    22   1
    26    28    18  am
    27    21    19   1
    28    23    20   1
    29    20    26   1
    30    23    28   1
    31    24    26  ar
    32    25    27  ar
    33     4    30   1
    34     4    31   1
    35     5    32   1
    36     5    33   1
    37     5    34   1
    38     8    35   1
    39     9    36   1
    40    10    37   1
    41    11    38   1
    42    12    39   1
    43    13    40   1
    44    14    41   1
    45    15    42   1
    46    16    43   1
    47    17    44   1
    48    17    45   1
    49    18    46   1
@<TRIPOS>SUBSTRUCTURE
     1  FG5      1

