@<TRIPOS>MOLECULE
3ivg_ligand_096
    46    49
SMALL
GAST_HUCK
****
This file was generated by PARSER (from files_GN.cpp)

@<TRIPOS>ATOM
      1 C           8.6295  -12.0774   34.7192 C.2         1 FG5       0.0635
      2 N           7.1941  -13.1626   36.3528 N.pl3       1 FG5      -0.2501
      3 O           8.4678  -10.7869   35.0855 O.co2       1 FG5      -0.5663
      4 CA          7.5606  -13.0675   34.9580 C.3         1 FG5       0.1031
      5 CAA        11.2573  -14.6017   41.2251 C.3         1 FG5       0.0567
      6 OAC         1.1809  -12.6266   38.0056 O.2         1 FG5      -0.1460
      7 OAD         3.0129  -14.1467   38.9694 O.2         1 FG5      -0.1460
      8 CAF         0.4025  -17.6371   33.4373 C.ar        1 FG5      -0.0767
      9 CAG         1.3635  -18.4537   34.0743 C.ar        1 FG5      -0.0734
     10 CAH        10.0848  -13.9806   38.6037 C.ar        1 FG5      -0.0489
     11 CAI         0.2218  -16.2952   33.8370 C.ar        1 FG5      -0.0712
     12 CAJ         2.1511  -17.9401   35.1262 C.ar        1 FG5      -0.0310
     13 CAK         9.4298  -13.7616   37.3688 C.ar        1 FG5      -0.0524
     14 CAL         7.9817  -13.6919   39.8031 C.ar        1 FG5      -0.0541
     15 CAM         6.0524  -13.1167   38.2783 C.2         1 FG5      -0.0688
     16 CAN         1.0474  -14.5655   35.5229 C.2         1 FG5      -0.0189
     17 CAO         4.6979  -12.6664   36.1598 C.3         1 FG5       0.0846
     18 NAQ         3.5843  -12.3264   36.9846 N.am        1 FG5      -0.2288
     19 OAR         9.9096  -14.1300   41.0861 O.3         1 FG5      -0.3308
     20 OAS         2.5583  -15.9099   36.5109 O.3         1 FG5      -0.2287
     21 CAU         9.3686  -13.9559   39.8312 C.ar        1 FG5       0.0691
     22 CAV         5.9554  -12.9657   36.8918 C.2         1 FG5       0.0618
     23 CAW         2.0149  -14.6680   36.5204 C.2         1 FG5       0.2522
     24 CAX         1.0052  -15.8006   34.8947 C.ar        1 FG5      -0.0094
     25 CAY         7.3589  -13.4401   38.5707 C.ar        1 FG5      -0.0477
     26 CAZ         1.9511  -16.6092   35.5262 C.ar        1 FG5       0.1269
     27 CBA         8.0537  -13.4700   37.3627 C.ar        1 FG5       0.0540
     28 SBC         2.4969  -13.4384   37.6390 S.o2        1 FG5       0.1039
     29 OXT         9.8374  -12.4760   34.2597 O.co2       1 FG5      -0.5663
     30 H1          7.8908  -14.0503   34.6147 H           1 FG5       0.0766
     31 H2          6.7140  -12.7818   34.3312 H           1 FG5       0.0766
     32 H3         11.4820  -14.7119   42.2828 H           1 FG5       0.0573
     33 H4         11.9683  -13.8903   40.8019 H           1 FG5       0.0573
     34 H5         11.3691  -15.5683   40.7309 H           1 FG5       0.0573
     35 H6         -0.1684  -18.0241   32.6842 H           1 FG5       0.0527
     36 H7          1.4881  -19.4231   33.7747 H           1 FG5       0.0542
     37 H8         11.0898  -14.1416   38.5918 H           1 FG5       0.0453
     38 H9         -0.4672  -15.6985   33.3739 H           1 FG5       0.0546
     39 H10         2.8456  -18.5242   35.5953 H           1 FG5       0.0562
     40 H11         9.9657  -13.7956   36.5035 H           1 FG5       0.0517
     41 H12         7.4359  -13.6625   40.6692 H           1 FG5       0.0403
     42 H13         5.3078  -13.0065   38.9661 H           1 FG5       0.0155
     43 H14         0.4745  -13.7484   35.3057 H           1 FG5       0.0361
     44 H15         4.8746  -11.7995   35.5206 H           1 FG5       0.0685
     45 H16         4.4514  -13.5098   35.5114 H           1 FG5       0.0685
     46 H17         3.5613  -11.4174   37.3230 H           1 FG5       0.1706
@<TRIPOS>BOND
     1     1     3  ar
     2     4     1   1
     3     1    29  ar
     4     2     4   1
     5    22     2   1
     6     2    27   1
     7    19     5   1
     8    28     6   2
     9    28     7   2
    10     9     8  ar
    11    11     8  ar
    12    12     9  ar
    13    13    10  ar
    14    21    10  ar
    15    24    11  ar
    16    26    12  ar
    17    27    13  ar
    18    14    21  ar
    19    25    14  ar
    20    22    15   2
    21    15    25   1
    22    23    16   2
    23    16    24   1
    24    18    17   1
    25    17    22   1
    26    28    18  am
    27    21    19   1
    28    23    20   1
    29    20    26   1
    30    23    28   1
    31    24    26  ar
    32    25    27  ar
    33     4    30   1
    34     4    31   1
    35     5    32   1
    36     5    33   1
    37     5    34   1
    38     8    35   1
    39     9    36   1
    40    10    37   1
    41    11    38   1
    42    12    39   1
    43    13    40   1
    44    14    41   1
    45    15    42   1
    46    16    43   1
    47    17    44   1
    48    17    45   1
    49    18    46   1
@<TRIPOS>SUBSTRUCTURE
     1  FG5      1

