@<TRIPOS>MOLECULE
3ivg_ligand_037
    46    49
SMALL
GAST_HUCK
****
This file was generated by PARSER (from files_GN.cpp)

@<TRIPOS>ATOM
      1 C           7.2957  -13.7704   40.8811 C.2         1 FG5       0.0635
      2 N           7.6908  -14.3531   38.5610 N.pl3       1 FG5      -0.2501
      3 O           7.0968  -14.0996   42.1770 O.co2       1 FG5      -0.5663
      4 CA          7.7093  -14.8197   39.9280 C.3         1 FG5       0.1031
      5 CAA        12.7221  -12.0146   35.1675 C.3         1 FG5       0.0567
      6 OAC         6.4925  -16.1446   35.4520 O.2         1 FG5      -0.1460
      7 OAD         4.2751  -15.8619   34.3266 O.2         1 FG5      -0.1460
      8 CAF         3.5725  -22.2669   36.8120 C.ar        1 FG5      -0.0767
      9 CAG         4.7174  -22.1766   37.6361 C.ar        1 FG5      -0.0734
     10 CAH        11.0053  -13.2159   37.2212 C.ar        1 FG5      -0.0489
     11 CAI         3.1036  -21.1336   36.1144 C.ar        1 FG5      -0.0712
     12 CAJ         5.4030  -20.9507   37.7758 C.ar        1 FG5      -0.0310
     13 CAK        10.1222  -13.7515   38.1798 C.ar        1 FG5      -0.0524
     14 CAL         9.1614  -12.8091   35.6839 C.ar        1 FG5      -0.0541
     15 CAM         6.9431  -13.5690   36.5978 C.2         1 FG5      -0.0688
     16 CAN         3.6154  -18.6768   35.6797 C.2         1 FG5      -0.0189
     17 CAO         5.2056  -14.7313   38.0261 C.3         1 FG5       0.0846
     18 NAQ         4.4415  -15.0700   36.8660 N.am        1 FG5      -0.2288
     19 OAR        11.3224  -12.2341   34.9430 O.3         1 FG5      -0.3308
     20 OAS         5.4264  -18.5714   37.0122 O.3         1 FG5      -0.2287
     21 CAU        10.5414  -12.7318   35.9656 C.ar        1 FG5       0.0691
     22 CAV         6.5865  -14.2434   37.7668 C.2         1 FG5       0.0618
     23 CAW         4.6313  -17.8646   36.1708 C.2         1 FG5       0.2522
     24 CAX         3.8059  -19.9240   36.2498 C.ar        1 FG5      -0.0094
     25 CAY         8.3054  -13.3771   36.6400 C.ar        1 FG5      -0.0477
     26 CAZ         4.9330  -19.8307   37.0683 C.ar        1 FG5       0.1269
     27 CBA         8.7532  -13.8574   37.8710 C.ar        1 FG5       0.0540
     28 SBC         4.9289  -16.2223   35.7303 S.o2        1 FG5       0.1039
     29 OXT         7.5440  -12.4674   40.6172 O.co2       1 FG5      -0.5663
     30 H1          7.0478  -15.6802   40.0457 H           1 FG5       0.0766
     31 H2          8.7063  -15.1581   40.2141 H           1 FG5       0.0766
     32 H3         13.1703  -11.6154   34.2514 H           1 FG5       0.0573
     33 H4         13.2211  -12.9528   35.4170 H           1 FG5       0.0573
     34 H5         12.8601  -11.2933   35.9748 H           1 FG5       0.0573
     35 H6          3.0849  -23.1605   36.7161 H           1 FG5       0.0527
     36 H7          5.0550  -23.0050   38.1326 H           1 FG5       0.0542
     37 H8         11.9977  -13.1994   37.4463 H           1 FG5       0.0453
     38 H9          2.2769  -21.1961   35.5180 H           1 FG5       0.0546
     39 H10         6.2333  -20.8803   38.3678 H           1 FG5       0.0562
     40 H11        10.4939  -14.0857   39.0682 H           1 FG5       0.0517
     41 H12         8.7825  -12.4767   34.7927 H           1 FG5       0.0403
     42 H13         6.3435  -13.3721   35.7933 H           1 FG5       0.0155
     43 H14         2.8850  -18.4174   35.0168 H           1 FG5       0.0361
     44 H15         5.2167  -15.6107   38.6715 H           1 FG5       0.0685
     45 H16         4.6813  -13.9348   38.5567 H           1 FG5       0.0685
     46 H17         3.4977  -14.8358   36.8750 H           1 FG5       0.1706
@<TRIPOS>BOND
     1     1     3  ar
     2     4     1   1
     3     1    29  ar
     4     2     4   1
     5    22     2   1
     6     2    27   1
     7    19     5   1
     8    28     6   2
     9    28     7   2
    10     9     8  ar
    11    11     8  ar
    12    12     9  ar
    13    13    10  ar
    14    21    10  ar
    15    24    11  ar
    16    26    12  ar
    17    27    13  ar
    18    14    21  ar
    19    25    14  ar
    20    22    15   2
    21    15    25   1
    22    23    16   2
    23    16    24   1
    24    18    17   1
    25    17    22   1
    26    28    18  am
    27    21    19   1
    28    23    20   1
    29    20    26   1
    30    23    28   1
    31    24    26  ar
    32    25    27  ar
    33     4    30   1
    34     4    31   1
    35     5    32   1
    36     5    33   1
    37     5    34   1
    38     8    35   1
    39     9    36   1
    40    10    37   1
    41    11    38   1
    42    12    39   1
    43    13    40   1
    44    14    41   1
    45    15    42   1
    46    16    43   1
    47    17    44   1
    48    17    45   1
    49    18    46   1
@<TRIPOS>SUBSTRUCTURE
     1  FG5      1

