@<TRIPOS>MOLECULE
3ivg_ligand_059
    46    49
SMALL
GAST_HUCK
****
This file was generated by PARSER (from files_GN.cpp)

@<TRIPOS>ATOM
      1 C          11.5795  -14.5847   37.8194 C.2         1 FG5       0.0635
      2 N           9.4432  -13.3619   37.6759 N.pl3       1 FG5      -0.2501
      3 O          11.5216  -15.0605   39.0889 O.co2       1 FG5      -0.5663
      4 CA         10.8703  -13.3359   37.4414 C.3         1 FG5       0.1031
      5 CAA         6.4207  -15.7743   42.6025 C.3         1 FG5       0.0567
      6 OAC         5.0570  -14.4181   34.6082 O.2         1 FG5      -0.1460
      7 OAD         7.0157  -15.5197   35.6938 O.2         1 FG5      -0.1460
      8 CAF         7.5504  -17.7603   29.0746 C.ar        1 FG5      -0.0767
      9 CAG         8.0056  -18.7541   29.9716 C.ar        1 FG5      -0.0734
     10 CAH         8.5785  -14.1791   41.2465 C.ar        1 FG5      -0.0489
     11 CAI         7.0952  -16.5153   29.5570 C.ar        1 FG5      -0.0712
     12 CAJ         8.0110  -18.5119   31.3614 C.ar        1 FG5      -0.0310
     13 CAK         9.4320  -13.9195   40.1491 C.ar        1 FG5      -0.0524
     14 CAL         6.6196  -13.7963   39.8431 C.ar        1 FG5      -0.0541
     15 CAM         7.2181  -13.1511   37.4694 C.2         1 FG5      -0.0688
     16 CAN         6.7390  -15.1937   31.7181 C.2         1 FG5      -0.0189
     17 CAO         8.5496  -12.8246   35.3286 C.3         1 FG5       0.0846
     18 NAQ         7.3725  -13.0944   34.5543 N.am        1 FG5      -0.2288
     19 OAR         6.3542  -14.4131   42.1471 O.3         1 FG5      -0.3308
     20 OAS         7.4624  -16.8144   33.0979 O.3         1 FG5      -0.2287
     21 CAU         7.1760  -14.1603   41.0863 C.ar        1 FG5       0.0691
     22 CAV         8.4370  -13.0998   36.7852 C.2         1 FG5       0.0618
     23 CAW         6.9671  -15.5571   33.0419 C.2         1 FG5       0.2522
     24 CAX         7.1124  -16.2843   30.9439 C.ar        1 FG5      -0.0094
     25 CAY         7.4868  -13.5290   38.7698 C.ar        1 FG5      -0.0477
     26 CAZ         7.5594  -17.2684   31.8284 C.ar        1 FG5       0.1269
     27 CBA         8.8726  -13.6184   38.8853 C.ar        1 FG5       0.0540
     28 SBC         6.6263  -14.6074   34.4478 S.o2        1 FG5       0.1039
     29 OXT        12.5943  -15.0434   37.0480 O.co2       1 FG5      -0.5663
     30 H1         11.0707  -13.1359   36.3783 H           1 FG5       0.0766
     31 H2         11.2896  -12.5068   38.0212 H           1 FG5       0.0766
     32 H3          5.6613  -15.9148   43.3704 H           1 FG5       0.0573
     33 H4          7.3962  -15.9917   43.0467 H           1 FG5       0.0573
     34 H5          6.2268  -16.4846   41.7934 H           1 FG5       0.0573
     35 H6          7.5487  -17.9466   28.0697 H           1 FG5       0.0527
     36 H7          8.3302  -19.6538   29.6140 H           1 FG5       0.0542
     37 H8          8.9915  -14.3836   42.1569 H           1 FG5       0.0453
     38 H9          6.7573  -15.7979   28.9121 H           1 FG5       0.0546
     39 H10         8.3314  -19.2249   32.0191 H           1 FG5       0.0562
     40 H11        10.4514  -13.9597   40.2768 H           1 FG5       0.0517
     41 H12         5.6035  -13.7450   39.7245 H           1 FG5       0.0403
     42 H13         6.2844  -12.9890   37.0831 H           1 FG5       0.0155
     43 H14         6.3593  -14.3073   31.3838 H           1 FG5       0.0361
     44 H15         8.7976  -11.7714   35.1991 H           1 FG5       0.0685
     45 H16         9.3590  -13.4101   34.9065 H           1 FG5       0.0685
     46 H17         7.0830  -12.4115   33.9234 H           1 FG5       0.1706
@<TRIPOS>BOND
     1     1     3  ar
     2     4     1   1
     3     1    29  ar
     4     2     4   1
     5    22     2   1
     6     2    27   1
     7    19     5   1
     8    28     6   2
     9    28     7   2
    10     9     8  ar
    11    11     8  ar
    12    12     9  ar
    13    13    10  ar
    14    21    10  ar
    15    24    11  ar
    16    26    12  ar
    17    27    13  ar
    18    14    21  ar
    19    25    14  ar
    20    22    15   2
    21    15    25   1
    22    23    16   2
    23    16    24   1
    24    18    17   1
    25    17    22   1
    26    28    18  am
    27    21    19   1
    28    23    20   1
    29    20    26   1
    30    23    28   1
    31    24    26  ar
    32    25    27  ar
    33     4    30   1
    34     4    31   1
    35     5    32   1
    36     5    33   1
    37     5    34   1
    38     8    35   1
    39     9    36   1
    40    10    37   1
    41    11    38   1
    42    12    39   1
    43    13    40   1
    44    14    41   1
    45    15    42   1
    46    16    43   1
    47    17    44   1
    48    17    45   1
    49    18    46   1
@<TRIPOS>SUBSTRUCTURE
     1  FG5      1

