@<TRIPOS>MOLECULE
3ivg_ligand_044
    46    49
SMALL
GAST_HUCK
****
This file was generated by PARSER (from files_GN.cpp)

@<TRIPOS>ATOM
      1 C           7.5633  -14.4276   34.2831 C.2         1 FG5       0.0635
      2 N           6.4623  -12.9173   35.9053 N.pl3       1 FG5      -0.2501
      3 O           8.0131  -14.6850   33.0252 O.co2       1 FG5      -0.5663
      4 CA          7.0933  -13.0756   34.6097 C.3         1 FG5       0.1031
      5 CAA         6.9886  -15.0858   41.7825 C.3         1 FG5       0.0567
      6 OAC         1.0634  -10.9910   33.9290 O.2         1 FG5      -0.1460
      7 OAD         2.6769   -9.0548   34.5608 O.2         1 FG5      -0.1460
      8 CAF        -1.6976   -8.9318   40.0580 C.ar        1 FG5      -0.0767
      9 CAG        -2.0089   -7.7985   39.2810 C.ar        1 FG5      -0.0734
     10 CAH         8.5012  -14.2638   38.7722 C.ar        1 FG5      -0.0489
     11 CAI        -0.8130   -9.9149   39.5780 C.ar        1 FG5      -0.0712
     12 CAJ        -1.4238   -7.6307   38.0006 C.ar        1 FG5      -0.0310
     13 CAK         8.2219  -13.9250   37.4206 C.ar        1 FG5      -0.0524
     14 CAL         6.4046  -13.2267   39.4731 C.ar        1 FG5      -0.0541
     15 CAM         5.0369  -12.3534   37.5366 C.2         1 FG5      -0.0688
     16 CAN         0.6465  -10.4999   37.5641 C.2         1 FG5      -0.0189
     17 CAO         4.3094  -11.7317   35.1741 C.3         1 FG5       0.0846
     18 NAQ         3.0225  -11.4756   35.7193 N.am        1 FG5      -0.2288
     19 OAR         7.9157  -14.2221   41.0967 O.3         1 FG5      -0.3308
     20 OAS         0.1426   -8.6745   36.3616 O.3         1 FG5      -0.2287
     21 CAU         7.5886  -13.9267   39.7964 C.ar        1 FG5       0.0691
     22 CAV         5.2504  -12.3383   36.1544 C.2         1 FG5       0.0618
     23 CAW         0.8734   -9.8268   36.3725 C.2         1 FG5       0.2522
     24 CAX        -0.2421   -9.7394   38.3041 C.ar        1 FG5      -0.0094
     25 CAY         6.1282  -12.9558   38.1205 C.ar        1 FG5      -0.0477
     26 CAZ        -0.5378   -8.6127   37.5235 C.ar        1 FG5       0.1269
     27 CBA         7.0093  -13.2982   37.0915 C.ar        1 FG5       0.0540
     28 SBC         1.9315  -10.3476   35.1056 S.o2        1 FG5       0.1039
     29 OXT         7.5625  -15.4509   35.1570 O.co2       1 FG5      -0.5663
     30 H1          6.4125  -12.7843   33.8068 H           1 FG5       0.0766
     31 H2          7.9564  -12.4039   34.5708 H           1 FG5       0.0766
     32 H3          7.4055  -15.3261   42.7606 H           1 FG5       0.0573
     33 H4          6.8282  -16.0208   41.2396 H           1 FG5       0.0573
     34 H5          6.0272  -14.5934   41.9443 H           1 FG5       0.0573
     35 H6         -2.1166   -9.0386   40.9886 H           1 FG5       0.0527
     36 H7         -2.6514   -7.0897   39.6365 H           1 FG5       0.0542
     37 H8          9.3689  -14.7540   38.9950 H           1 FG5       0.0453
     38 H9         -0.5821  -10.7382   40.1393 H           1 FG5       0.0546
     39 H10        -1.6327   -6.8083   37.4354 H           1 FG5       0.0562
     40 H11         8.9033  -14.1621   36.6982 H           1 FG5       0.0517
     41 H12         5.7434  -12.9474   40.1985 H           1 FG5       0.0403
     42 H13         4.2319  -11.9748   38.0402 H           1 FG5       0.0155
     43 H14         1.0612  -11.3926   37.8567 H           1 FG5       0.0361
     44 H15         4.7657  -10.8093   34.7972 H           1 FG5       0.0685
     45 H16         4.1744  -12.4252   34.3402 H           1 FG5       0.0685
     46 H17         2.6522  -12.1511   36.3103 H           1 FG5       0.1706
@<TRIPOS>BOND
     1     1     3  ar
     2     4     1   1
     3     1    29  ar
     4     2     4   1
     5    22     2   1
     6     2    27   1
     7    19     5   1
     8    28     6   2
     9    28     7   2
    10     9     8  ar
    11    11     8  ar
    12    12     9  ar
    13    13    10  ar
    14    21    10  ar
    15    24    11  ar
    16    26    12  ar
    17    27    13  ar
    18    14    21  ar
    19    25    14  ar
    20    22    15   2
    21    15    25   1
    22    23    16   2
    23    16    24   1
    24    18    17   1
    25    17    22   1
    26    28    18  am
    27    21    19   1
    28    23    20   1
    29    20    26   1
    30    23    28   1
    31    24    26  ar
    32    25    27  ar
    33     4    30   1
    34     4    31   1
    35     5    32   1
    36     5    33   1
    37     5    34   1
    38     8    35   1
    39     9    36   1
    40    10    37   1
    41    11    38   1
    42    12    39   1
    43    13    40   1
    44    14    41   1
    45    15    42   1
    46    16    43   1
    47    17    44   1
    48    17    45   1
    49    18    46   1
@<TRIPOS>SUBSTRUCTURE
     1  FG5      1

