@<TRIPOS>MOLECULE
3ivg_ligand_046
    46    49
SMALL
GAST_HUCK
****
This file was generated by PARSER (from files_GN.cpp)

@<TRIPOS>ATOM
      1 C           7.3304  -15.2319   34.0349 C.2         1 FG5       0.0635
      2 N           6.5004  -13.9238   35.8798 N.pl3       1 FG5      -0.2501
      3 O           8.2015  -16.1083   34.5687 O.co2       1 FG5      -0.5663
      4 CA          6.1484  -14.8217   34.8082 C.3         1 FG5       0.1031
      5 CAA         7.3701  -15.0389   42.0605 C.3         1 FG5       0.0567
      6 OAC         8.6219   -8.9585   36.4099 O.2         1 FG5      -0.1460
      7 OAD         9.4310   -8.8194   34.0163 O.2         1 FG5      -0.1460
      8 CAF        13.7171  -13.7015   36.7084 C.ar        1 FG5      -0.0767
      9 CAG        14.3836  -13.0049   35.6719 C.ar        1 FG5      -0.0734
     10 CAH         6.0192  -15.3055   39.3406 C.ar        1 FG5      -0.0489
     11 CAI        12.3840  -13.3816   37.0401 C.ar        1 FG5      -0.0712
     12 CAJ        13.7128  -11.9983   34.9391 C.ar        1 FG5      -0.0310
     13 CAK         5.9829  -15.3239   37.9309 C.ar        1 FG5      -0.0524
     14 CAL         6.8584  -13.0142   39.3187 C.ar        1 FG5      -0.0541
     15 CAM         7.1210  -12.0903   36.9953 C.2         1 FG5      -0.0688
     16 CAN        10.4818  -11.8186   36.4415 C.2         1 FG5      -0.0189
     17 CAO         7.3823  -12.0023   34.4504 C.3         1 FG5       0.0846
     18 NAQ         7.6065  -10.5952   34.5017 N.am        1 FG5      -0.2288
     19 OAR         6.4926  -14.0971   41.4172 O.3         1 FG5      -0.3308
     20 OAS        11.5382  -10.7719   34.7701 O.3         1 FG5      -0.2287
     21 CAU         6.4694  -14.1591   40.0432 C.ar        1 FG5       0.0691
     22 CAV         6.9896  -12.6562   35.7286 C.2         1 FG5       0.0618
     23 CAW        10.3681  -10.8413   35.4566 C.2         1 FG5       0.2522
     24 CAX        11.7461  -12.3669   36.3169 C.ar        1 FG5      -0.0094
     25 CAY         6.8044  -13.0535   37.9198 C.ar        1 FG5      -0.0477
     26 CAZ        12.3842  -11.6921   35.2830 C.ar        1 FG5       0.1269
     27 CBA         6.3946  -14.1818   37.2103 C.ar        1 FG5       0.0540
     28 SBC         8.9770   -9.8418   35.1388 S.o2        1 FG5       0.1039
     29 OXT         7.5231  -14.8341   32.7600 O.co2       1 FG5      -0.5663
     30 H1          5.6650  -15.7259   35.1627 H           1 FG5       0.0766
     31 H2          5.4279  -14.3284   34.1495 H           1 FG5       0.0766
     32 H3          7.3389  -14.8490   43.1353 H           1 FG5       0.0573
     33 H4          8.3958  -14.9159   41.7194 H           1 FG5       0.0573
     34 H5          7.0409  -16.0658   41.8915 H           1 FG5       0.0573
     35 H6         14.2093  -14.4304   37.2308 H           1 FG5       0.0527
     36 H7         15.3568  -13.2379   35.4503 H           1 FG5       0.0542
     37 H8          5.7111  -16.1350   39.8650 H           1 FG5       0.0453
     38 H9         11.9059  -13.8641   37.7963 H           1 FG5       0.0546
     39 H10        14.1902  -11.4964   34.1889 H           1 FG5       0.0562
     40 H11         5.6778  -16.1679   37.4498 H           1 FG5       0.0517
     41 H12         7.1847  -12.1800   39.8023 H           1 FG5       0.0403
     42 H13         7.4697  -11.1603   37.2128 H           1 FG5       0.0155
     43 H14         9.7954  -12.0832   37.1415 H           1 FG5       0.0361
     44 H15         8.2712  -12.5070   34.0566 H           1 FG5       0.0685
     45 H16         6.5786  -12.1520   33.7257 H           1 FG5       0.0685
     46 H17         7.0085  -10.0324   33.9975 H           1 FG5       0.1706
@<TRIPOS>BOND
     1     1     3  ar
     2     4     1   1
     3     1    29  ar
     4     2     4   1
     5    22     2   1
     6     2    27   1
     7    19     5   1
     8    28     6   2
     9    28     7   2
    10     9     8  ar
    11    11     8  ar
    12    12     9  ar
    13    13    10  ar
    14    21    10  ar
    15    24    11  ar
    16    26    12  ar
    17    27    13  ar
    18    14    21  ar
    19    25    14  ar
    20    22    15   2
    21    15    25   1
    22    23    16   2
    23    16    24   1
    24    18    17   1
    25    17    22   1
    26    28    18  am
    27    21    19   1
    28    23    20   1
    29    20    26   1
    30    23    28   1
    31    24    26  ar
    32    25    27  ar
    33     4    30   1
    34     4    31   1
    35     5    32   1
    36     5    33   1
    37     5    34   1
    38     8    35   1
    39     9    36   1
    40    10    37   1
    41    11    38   1
    42    12    39   1
    43    13    40   1
    44    14    41   1
    45    15    42   1
    46    16    43   1
    47    17    44   1
    48    17    45   1
    49    18    46   1
@<TRIPOS>SUBSTRUCTURE
     1  FG5      1

