@<TRIPOS>MOLECULE
3ivg_ligand_054
    46    49
SMALL
GAST_HUCK
****
This file was generated by PARSER (from files_GN.cpp)

@<TRIPOS>ATOM
      1 C           7.1401  -13.8832   35.2449 C.2         1 FG5       0.0635
      2 N           5.3566  -14.2582   36.8216 N.pl3       1 FG5      -0.2501
      3 O           6.9116  -12.5927   34.9098 O.co2       1 FG5      -0.5663
      4 CA          6.0256  -14.7572   35.6441 C.3         1 FG5       0.1031
      5 CAA         6.7803  -15.2341   42.8945 C.3         1 FG5       0.0567
      6 OAC         0.1985  -10.9542   36.2067 O.2         1 FG5      -0.1460
      7 OAD         0.2238  -13.1210   34.9101 O.2         1 FG5      -0.1460
      8 CAF         1.6378   -8.2563   29.9937 C.ar        1 FG5      -0.0767
      9 CAG         1.0415   -9.3895   29.3947 C.ar        1 FG5      -0.0734
     10 CAH         7.4639  -14.6172   39.9064 C.ar        1 FG5      -0.0489
     11 CAI         1.9104   -8.2404   31.3807 C.ar        1 FG5      -0.0712
     12 CAJ         0.7118  -10.5195   30.1754 C.ar        1 FG5      -0.0310
     13 CAK         7.1638  -14.7015   38.5321 C.ar        1 FG5      -0.0524
     14 CAL         5.2410  -13.7032   40.3549 C.ar        1 FG5      -0.0541
     15 CAM         3.8296  -13.4721   38.2577 C.2         1 FG5      -0.0688
     16 CAN         1.7134   -9.6629   33.4950 C.2         1 FG5      -0.0189
     17 CAO         3.0890  -13.5118   35.8491 C.3         1 FG5       0.0846
     18 NAQ         2.5238  -12.2073   35.9304 N.am        1 FG5      -0.2288
     19 OAR         6.7991  -14.0016   42.1555 O.3         1 FG5      -0.3308
     20 OAS         0.7664  -11.4397   32.4897 O.3         1 FG5      -0.2287
     21 CAU         6.5004  -14.1345   40.8261 C.ar        1 FG5       0.0691
     22 CAV         4.0968  -13.7452   36.9142 C.2         1 FG5       0.0618
     23 CAW         1.2051  -10.9488   33.6783 C.2         1 FG5       0.2522
     24 CAX         1.5781   -9.3739   32.1452 C.ar        1 FG5      -0.0094
     25 CAY         4.9617  -13.7957   38.9801 C.ar        1 FG5      -0.0477
     26 CAZ         0.9902  -10.4916   31.5515 C.ar        1 FG5       0.1269
     27 CBA         5.8986  -14.2829   38.0674 C.ar        1 FG5       0.0540
     28 SBC         1.0695  -11.7996   35.1808 S.o2        1 FG5       0.1039
     29 OXT         8.4020  -14.3578   35.1942 O.co2       1 FG5      -0.5663
     30 H1          6.3943  -15.7654   35.8472 H           1 FG5       0.0766
     31 H2          5.3579  -14.8477   34.7896 H           1 FG5       0.0766
     32 H3          6.9963  -15.0021   43.9371 H           1 FG5       0.0573
     33 H4          7.5436  -15.9258   42.5328 H           1 FG5       0.0573
     34 H5          5.8009  -15.7154   42.8487 H           1 FG5       0.0573
     35 H6          1.8760   -7.4463   29.4189 H           1 FG5       0.0527
     36 H7          0.8496   -9.3937   28.3917 H           1 FG5       0.0542
     37 H8          8.3870  -14.9049   40.2391 H           1 FG5       0.0453
     38 H9          2.3429   -7.4239   31.8151 H           1 FG5       0.0546
     39 H10         0.2841  -11.3417   29.7486 H           1 FG5       0.0562
     40 H11         7.8656  -15.0528   37.8813 H           1 FG5       0.0517
     41 H12         4.5418  -13.3297   40.9998 H           1 FG5       0.0403
     42 H13         2.9600  -13.0931   38.6436 H           1 FG5       0.0155
     43 H14         2.0966   -9.0493   34.2165 H           1 FG5       0.0361
     44 H15         3.5195  -13.6164   34.8556 H           1 FG5       0.0685
     45 H16         2.3107  -14.2701   35.9653 H           1 FG5       0.0685
     46 H17         3.0977  -11.4769   36.2230 H           1 FG5       0.1706
@<TRIPOS>BOND
     1     1     3  ar
     2     4     1   1
     3     1    29  ar
     4     2     4   1
     5    22     2   1
     6     2    27   1
     7    19     5   1
     8    28     6   2
     9    28     7   2
    10     9     8  ar
    11    11     8  ar
    12    12     9  ar
    13    13    10  ar
    14    21    10  ar
    15    24    11  ar
    16    26    12  ar
    17    27    13  ar
    18    14    21  ar
    19    25    14  ar
    20    22    15   2
    21    15    25   1
    22    23    16   2
    23    16    24   1
    24    18    17   1
    25    17    22   1
    26    28    18  am
    27    21    19   1
    28    23    20   1
    29    20    26   1
    30    23    28   1
    31    24    26  ar
    32    25    27  ar
    33     4    30   1
    34     4    31   1
    35     5    32   1
    36     5    33   1
    37     5    34   1
    38     8    35   1
    39     9    36   1
    40    10    37   1
    41    11    38   1
    42    12    39   1
    43    13    40   1
    44    14    41   1
    45    15    42   1
    46    16    43   1
    47    17    44   1
    48    17    45   1
    49    18    46   1
@<TRIPOS>SUBSTRUCTURE
     1  FG5      1

