@<TRIPOS>MOLECULE
3ivg_ligand_077
    46    49
SMALL
GAST_HUCK
****
This file was generated by PARSER (from files_GN.cpp)

@<TRIPOS>ATOM
      1 C           8.8941   -8.6221   36.6145 C.2         1 FG5       0.0635
      2 N           8.1617  -10.8271   35.8393 N.pl3       1 FG5      -0.2501
      3 O           9.4223   -9.0195   37.7934 O.co2       1 FG5      -0.5663
      4 CA          8.7376   -9.5496   35.4732 C.3         1 FG5       0.1031
      5 CAA         8.8714  -15.2301   40.2549 C.3         1 FG5       0.0567
      6 OAC         3.2000   -9.4438   35.0509 O.2         1 FG5      -0.1460
      7 OAD         2.2798  -11.8056   35.0549 O.2         1 FG5      -0.1460
      8 CAF         0.9292  -10.1948   28.4440 C.ar        1 FG5      -0.0767
      9 CAG         1.4907   -8.9062   28.5703 C.ar        1 FG5      -0.0734
     10 CAH        10.2922  -12.7999   38.2241 C.ar        1 FG5      -0.0489
     11 CAI         1.0370  -11.1289   29.4954 C.ar        1 FG5      -0.0712
     12 CAJ         2.1566   -8.5271   29.7575 C.ar        1 FG5      -0.0310
     13 CAK         9.9826  -11.7294   37.3628 C.ar        1 FG5      -0.0524
     14 CAL         8.2191  -13.9289   37.6071 C.ar        1 FG5      -0.0541
     15 CAM         6.7952  -12.6038   36.0117 C.2         1 FG5      -0.0688
     16 CAN         1.9694  -11.4123   31.8560 C.2         1 FG5      -0.0189
     17 CAO         6.0118  -10.7348   34.4686 C.3         1 FG5       0.0846
     18 NAQ         4.8069  -11.4849   34.2741 N.am        1 FG5      -0.2288
     19 OAR         9.7803  -14.9349   39.1788 O.3         1 FG5      -0.3308
     20 OAS         2.8253   -9.3411   32.0227 O.3         1 FG5      -0.2287
     21 CAU         9.4079  -13.8979   38.3697 C.ar        1 FG5       0.0691
     22 CAV         6.9760  -11.3558   35.4116 C.2         1 FG5       0.0618
     23 CAW         2.6662  -10.5215   32.6690 C.2         1 FG5       0.2522
     24 CAX         1.7055  -10.7410   30.6709 C.ar        1 FG5      -0.0094
     25 CAY         7.9026  -12.8352   36.8019 C.ar        1 FG5      -0.0477
     26 CAZ         2.2498   -9.4647   30.7998 C.ar        1 FG5       0.1269
     27 CBA         8.7467  -11.7294   36.6722 C.ar        1 FG5       0.0540
     28 SBC         3.2520  -10.8286   34.2663 S.o2        1 FG5       0.1039
     29 OXT         8.6823   -7.2970   36.4496 O.co2       1 FG5      -0.5663
     30 H1          9.7071   -9.7240   35.0005 H           1 FG5       0.0766
     31 H2          8.1195   -9.0570   34.7205 H           1 FG5       0.0766
     32 H3          9.3031  -16.0386   40.8352 H           1 FG5       0.0573
     33 H4          7.9033  -15.5712   39.8807 H           1 FG5       0.0573
     34 H5          8.7276  -14.3676   40.9103 H           1 FG5       0.0573
     35 H6          0.4435  -10.4563   27.5838 H           1 FG5       0.0527
     36 H7          1.4135   -8.2373   27.7996 H           1 FG5       0.0542
     37 H8         11.1727  -12.7824   38.7535 H           1 FG5       0.0453
     38 H9          0.6419  -12.0661   29.4066 H           1 FG5       0.0546
     39 H10         2.5621   -7.5947   29.8570 H           1 FG5       0.0562
     40 H11        10.6478  -10.9628   37.2440 H           1 FG5       0.0517
     41 H12         7.5869  -14.7353   37.6538 H           1 FG5       0.0403
     42 H13         6.0060  -13.2405   35.8944 H           1 FG5       0.0155
     43 H14         1.6911  -12.3687   32.0863 H           1 FG5       0.0361
     44 H15         5.7991   -9.7282   34.8238 H           1 FG5       0.0685
     45 H16         6.5003  -10.6634   33.4914 H           1 FG5       0.0685
     46 H17         4.8882  -12.4346   34.1276 H           1 FG5       0.1706
@<TRIPOS>BOND
     1     1     3  ar
     2     4     1   1
     3     1    29  ar
     4     2     4   1
     5    22     2   1
     6     2    27   1
     7    19     5   1
     8    28     6   2
     9    28     7   2
    10     9     8  ar
    11    11     8  ar
    12    12     9  ar
    13    13    10  ar
    14    21    10  ar
    15    24    11  ar
    16    26    12  ar
    17    27    13  ar
    18    14    21  ar
    19    25    14  ar
    20    22    15   2
    21    15    25   1
    22    23    16   2
    23    16    24   1
    24    18    17   1
    25    17    22   1
    26    28    18  am
    27    21    19   1
    28    23    20   1
    29    20    26   1
    30    23    28   1
    31    24    26  ar
    32    25    27  ar
    33     4    30   1
    34     4    31   1
    35     5    32   1
    36     5    33   1
    37     5    34   1
    38     8    35   1
    39     9    36   1
    40    10    37   1
    41    11    38   1
    42    12    39   1
    43    13    40   1
    44    14    41   1
    45    15    42   1
    46    16    43   1
    47    17    44   1
    48    17    45   1
    49    18    46   1
@<TRIPOS>SUBSTRUCTURE
     1  FG5      1

