@<TRIPOS>MOLECULE
3ivg_ligand_084
    46    49
SMALL
GAST_HUCK
****
This file was generated by PARSER (from files_GN.cpp)

@<TRIPOS>ATOM
      1 C           1.3680  -14.9593   36.5682 C.2         1 FG5       0.0635
      2 N           3.8170  -15.0123   36.5213 N.pl3       1 FG5      -0.2501
      3 O           0.1877  -14.8532   35.9149 O.co2       1 FG5      -0.5663
      4 CA          2.6078  -14.5281   35.8997 C.3         1 FG5       0.1031
      5 CAA         6.9485  -15.0243   42.1085 C.3         1 FG5       0.0567
      6 OAC         6.3935  -13.6787   32.4197 O.2         1 FG5      -0.1460
      7 OAD         7.7006  -15.8170   32.9110 O.2         1 FG5      -0.1460
      8 CAF         7.9320  -12.6512   39.1862 C.ar        1 FG5      -0.0767
      9 CAG         9.1506  -13.3280   38.9507 C.ar        1 FG5      -0.0734
     10 CAH         4.4486  -13.5420   39.9158 C.ar        1 FG5      -0.0489
     11 CAI         6.9559  -12.5667   38.1759 C.ar        1 FG5      -0.0712
     12 CAJ         9.3968  -13.9400   37.7029 C.ar        1 FG5      -0.0310
     13 CAK         3.7475  -13.7415   38.7094 C.ar        1 FG5      -0.0524
     14 CAL         6.1205  -15.1743   39.2579 C.ar        1 FG5      -0.0541
     15 CAM         5.6870  -16.1525   36.9523 C.2         1 FG5      -0.0688
     16 CAN         6.4417  -13.3076   35.7934 C.2         1 FG5      -0.0189
     17 CAO         4.7364  -16.5472   34.6644 C.3         1 FG5       0.0846
     18 NAQ         5.0784  -15.6564   33.6093 N.am        1 FG5      -0.2288
     19 OAR         6.2282  -13.9843   41.4301 O.3         1 FG5      -0.3308
     20 OAS         8.3455  -14.4771   35.5062 O.3         1 FG5      -0.2287
     21 CAU         5.6319  -14.2542   40.2094 C.ar        1 FG5       0.0691
     22 CAV         4.7120  -15.8985   36.0004 C.2         1 FG5       0.0618
     23 CAW         7.1546  -14.1443   34.9409 C.2         1 FG5       0.2522
     24 CAX         7.2155  -13.1695   36.9347 C.ar        1 FG5      -0.0094
     25 CAY         5.4241  -15.3490   38.0467 C.ar        1 FG5      -0.0477
     26 CAZ         8.4015  -13.8714   36.7156 C.ar        1 FG5       0.1269
     27 CBA         4.2549  -14.6515   37.7568 C.ar        1 FG5       0.0540
     28 SBC         6.5658  -14.8556   33.4745 S.o2        1 FG5       0.1039
     29 OXT         1.3760  -15.5811   37.7725 O.co2       1 FG5      -0.5663
     30 H1          2.6172  -13.4337   35.8653 H           1 FG5       0.0766
     31 H2          2.5514  -14.8767   34.8665 H           1 FG5       0.0766
     32 H3          7.2359  -14.6629   43.1000 H           1 FG5       0.0573
     33 H4          7.8588  -15.2759   41.5627 H           1 FG5       0.0573
     34 H5          6.3381  -15.9163   42.2477 H           1 FG5       0.0573
     35 H6          7.7569  -12.2150   40.0960 H           1 FG5       0.0527
     36 H7          9.8504  -13.3954   39.6983 H           1 FG5       0.0542
     37 H8          4.0767  -12.8837   40.6013 H           1 FG5       0.0453
     38 H9          6.0738  -12.0850   38.3464 H           1 FG5       0.0546
     39 H10        10.2643  -14.4509   37.5319 H           1 FG5       0.0562
     40 H11         2.8883  -13.2202   38.5257 H           1 FG5       0.0517
     41 H12         6.9671  -15.7188   39.4413 H           1 FG5       0.0403
     42 H13         6.4725  -16.7996   36.8530 H           1 FG5       0.0155
     43 H14         5.4952  -12.9564   35.6547 H           1 FG5       0.0361
     44 H15         5.4337  -17.3859   34.6422 H           1 FG5       0.0685
     45 H16         3.7475  -16.9561   34.4640 H           1 FG5       0.0685
     46 H17         4.6038  -15.7869   32.7746 H           1 FG5       0.1706
@<TRIPOS>BOND
     1     1     3  ar
     2     4     1   1
     3     1    29  ar
     4     2     4   1
     5    22     2   1
     6     2    27   1
     7    19     5   1
     8    28     6   2
     9    28     7   2
    10     9     8  ar
    11    11     8  ar
    12    12     9  ar
    13    13    10  ar
    14    21    10  ar
    15    24    11  ar
    16    26    12  ar
    17    27    13  ar
    18    14    21  ar
    19    25    14  ar
    20    22    15   2
    21    15    25   1
    22    23    16   2
    23    16    24   1
    24    18    17   1
    25    17    22   1
    26    28    18  am
    27    21    19   1
    28    23    20   1
    29    20    26   1
    30    23    28   1
    31    24    26  ar
    32    25    27  ar
    33     4    30   1
    34     4    31   1
    35     5    32   1
    36     5    33   1
    37     5    34   1
    38     8    35   1
    39     9    36   1
    40    10    37   1
    41    11    38   1
    42    12    39   1
    43    13    40   1
    44    14    41   1
    45    15    42   1
    46    16    43   1
    47    17    44   1
    48    17    45   1
    49    18    46   1
@<TRIPOS>SUBSTRUCTURE
     1  FG5      1

