@<TRIPOS>MOLECULE
3ivg_ligand_065
    46    49
SMALL
GAST_HUCK
****
This file was generated by PARSER (from files_GN.cpp)

@<TRIPOS>ATOM
      1 C           2.9806  -14.8842   37.3368 C.2         1 FG5       0.0635
      2 N           2.1167  -12.6398   37.1497 N.pl3       1 FG5      -0.2501
      3 O           2.9133  -15.8667   36.4062 O.co2       1 FG5      -0.5663
      4 CA          3.2669  -13.4869   36.9355 C.3         1 FG5       0.1031
      5 CAA         0.3645   -9.8483   42.5849 C.3         1 FG5       0.0567
      6 OAC         0.5034   -8.4628   33.3283 O.2         1 FG5      -0.1460
      7 OAD         2.7039   -8.9622   34.3576 O.2         1 FG5      -0.1460
      8 CAF        -0.8835   -7.5667   40.1742 C.ar        1 FG5      -0.0767
      9 CAG        -2.1430   -7.9184   39.6136 C.ar        1 FG5      -0.0734
     10 CAH         1.5517  -11.8513   40.7595 C.ar        1 FG5      -0.0489
     11 CAI         0.2893   -7.6864   39.3971 C.ar        1 FG5      -0.0712
     12 CAJ        -2.2329   -8.3363   38.2790 C.ar        1 FG5      -0.0310
     13 CAK         2.2373  -12.3876   39.6589 C.ar        1 FG5      -0.0524
     14 CAL        -0.2324  -11.0354   39.3101 C.ar        1 FG5      -0.0541
     15 CAM         0.1879  -11.5574   36.8665 C.2         1 FG5      -0.0688
     16 CAN         1.1375   -8.3392   37.0887 C.2         1 FG5      -0.0189
     17 CAO         1.4629  -12.0608   34.7308 C.3         1 FG5       0.0846
     18 NAQ         0.8461  -10.9445   34.0769 N.am        1 FG5      -0.2288
     19 OAR        -0.3717  -10.6959   41.6855 O.3         1 FG5      -0.3308
     20 OAS        -0.8847   -8.8006   36.2208 O.3         1 FG5      -0.2287
     21 CAU         0.3283  -11.1588   40.6077 C.ar        1 FG5       0.0691
     22 CAV         1.2744  -12.1194   36.2055 C.2         1 FG5       0.0618
     23 CAW         0.4471   -8.7614   35.9511 C.2         1 FG5       0.2522
     24 CAX         0.1860   -8.1156   38.0698 C.ar        1 FG5      -0.0094
     25 CAY         0.4615  -11.5779   38.2306 C.ar        1 FG5      -0.0477
     26 CAZ        -1.0602   -8.4159   37.5029 C.ar        1 FG5       0.1269
     27 CBA         1.6748  -12.2456   38.3575 C.ar        1 FG5       0.0540
     28 SBC         1.1637   -9.3358   34.4866 S.o2        1 FG5       0.1039
     29 OXT         2.8690  -15.2521   38.6344 O.co2       1 FG5      -0.5663
     30 H1          3.5831  -13.4883   35.8935 H           1 FG5       0.0766
     31 H2          4.1183  -13.1069   37.5073 H           1 FG5       0.0766
     32 H3         -0.2766   -9.6138   43.4358 H           1 FG5       0.0573
     33 H4          0.6450   -8.9163   42.0955 H           1 FG5       0.0573
     34 H5          1.2620  -10.3331   42.9679 H           1 FG5       0.0573
     35 H6         -0.8274   -7.2792   41.1470 H           1 FG5       0.0527
     36 H7         -2.9741   -7.8780   40.2042 H           1 FG5       0.0542
     37 H8          1.9641  -11.9619   41.6888 H           1 FG5       0.0453
     38 H9          1.2003   -7.4539   39.8013 H           1 FG5       0.0546
     39 H10        -3.1378   -8.6037   37.8774 H           1 FG5       0.0562
     40 H11         3.1382  -12.8434   39.7893 H           1 FG5       0.0517
     41 H12        -1.1241  -10.5533   39.1761 H           1 FG5       0.0403
     42 H13        -0.6227  -11.1178   36.4410 H           1 FG5       0.0155
     43 H14         2.1498   -8.2377   37.1855 H           1 FG5       0.0361
     44 H15         2.5282  -12.0180   34.4947 H           1 FG5       0.0685
     45 H16         1.0588  -12.9774   34.2936 H           1 FG5       0.0685
     46 H17         0.4168  -11.1020   33.2185 H           1 FG5       0.1706
@<TRIPOS>BOND
     1     1     3  ar
     2     4     1   1
     3     1    29  ar
     4     2     4   1
     5    22     2   1
     6     2    27   1
     7    19     5   1
     8    28     6   2
     9    28     7   2
    10     9     8  ar
    11    11     8  ar
    12    12     9  ar
    13    13    10  ar
    14    21    10  ar
    15    24    11  ar
    16    26    12  ar
    17    27    13  ar
    18    14    21  ar
    19    25    14  ar
    20    22    15   2
    21    15    25   1
    22    23    16   2
    23    16    24   1
    24    18    17   1
    25    17    22   1
    26    28    18  am
    27    21    19   1
    28    23    20   1
    29    20    26   1
    30    23    28   1
    31    24    26  ar
    32    25    27  ar
    33     4    30   1
    34     4    31   1
    35     5    32   1
    36     5    33   1
    37     5    34   1
    38     8    35   1
    39     9    36   1
    40    10    37   1
    41    11    38   1
    42    12    39   1
    43    13    40   1
    44    14    41   1
    45    15    42   1
    46    16    43   1
    47    17    44   1
    48    17    45   1
    49    18    46   1
@<TRIPOS>SUBSTRUCTURE
     1  FG5      1

