@<TRIPOS>MOLECULE
3ivg_ligand_025
    46    49
SMALL
GAST_HUCK
****
This file was generated by PARSER (from files_GN.cpp)

@<TRIPOS>ATOM
      1 C           2.4802  -14.6517   37.2520 C.2         1 FG5       0.0635
      2 N           2.7362  -12.6517   35.8186 N.pl3       1 FG5      -0.2501
      3 O           2.5216  -15.1752   38.4973 O.co2       1 FG5      -0.5663
      4 CA          2.2640  -13.2020   37.0719 C.3         1 FG5       0.1031
      5 CAA         0.7430  -10.2848   30.3683 C.3         1 FG5       0.0567
      6 OAC         8.3966  -12.3680   34.6578 O.2         1 FG5      -0.1460
      7 OAD         8.3645  -14.8722   34.2846 O.2         1 FG5      -0.1460
      8 CAF        10.0955  -14.4534   41.0216 C.ar        1 FG5      -0.0767
      9 CAG         8.7319  -14.6655   41.3231 C.ar        1 FG5      -0.0734
     10 CAH         0.1171  -10.9645   33.7106 C.ar        1 FG5      -0.0489
     11 CAI        10.5062  -14.2185   39.6927 C.ar        1 FG5      -0.0712
     12 CAJ         7.7643  -14.6635   40.3006 C.ar        1 FG5      -0.0310
     13 CAK         0.6123  -11.7085   34.8029 C.ar        1 FG5      -0.0524
     14 CAL         2.3767  -10.7502   32.8054 C.ar        1 FG5      -0.0541
     15 CAM         4.1195  -11.9014   34.2149 C.2         1 FG5      -0.0688
     16 CAN         9.5968  -13.9541   37.3174 C.2         1 FG5      -0.0189
     17 CAO         5.2350  -13.2045   36.0416 C.3         1 FG5       0.0846
     18 NAQ         6.0989  -13.7140   35.0282 N.am        1 FG5      -0.2288
     19 OAR         0.4892   -9.7433   31.6763 O.3         1 FG5      -0.3308
     20 OAS         7.4405  -14.3154   37.8541 O.3         1 FG5      -0.2287
     21 CAU         0.9918  -10.4923   32.7039 C.ar        1 FG5       0.0691
     22 CAV         4.0368  -12.6258   35.4038 C.2         1 FG5       0.0618
     23 CAW         8.2926  -14.0302   36.8377 C.2         1 FG5       0.2522
     24 CAX         9.5267  -14.1979   38.6827 C.ar        1 FG5      -0.0094
     25 CAY         2.8377  -11.5066   33.8900 C.ar        1 FG5      -0.0477
     26 CAZ         8.1811  -14.4182   38.9790 C.ar        1 FG5       0.1269
     27 CBA         1.9937  -11.9874   34.8945 C.ar        1 FG5       0.0540
     28 SBC         7.7728  -13.7219   35.2103 S.o2        1 FG5       0.1039
     29 OXT         2.5948  -15.4914   36.1895 O.co2       1 FG5      -0.5663
     30 H1          2.7693  -12.6757   37.8898 H           1 FG5       0.0766
     31 H2          1.1938  -13.0249   37.2026 H           1 FG5       0.0766
     32 H3          0.2086   -9.6788   29.6372 H           1 FG5       0.0573
     33 H4          0.3905  -11.3149   30.2829 H           1 FG5       0.0573
     34 H5          1.8067  -10.2424   30.1313 H           1 FG5       0.0573
     35 H6         10.7891  -14.4574   41.7751 H           1 FG5       0.0527
     36 H7          8.4411  -14.8213   42.2933 H           1 FG5       0.0542
     37 H8         -0.8799  -10.7584   33.6512 H           1 FG5       0.0453
     38 H9         11.4912  -14.0519   39.4721 H           1 FG5       0.0546
     39 H10         6.7755  -14.8144   40.5076 H           1 FG5       0.0562
     40 H11        -0.0334  -12.0320   35.5256 H           1 FG5       0.0517
     41 H12         3.0317  -10.3894   32.1050 H           1 FG5       0.0403
     42 H13         4.9728  -11.6856   33.6943 H           1 FG5       0.0155
     43 H14        10.4355  -13.7334   36.7771 H           1 FG5       0.0361
     44 H15         5.7272  -12.4212   36.6246 H           1 FG5       0.0685
     45 H16         4.9704  -14.0197   36.7139 H           1 FG5       0.0685
     46 H17         5.7139  -14.2915   34.3477 H           1 FG5       0.1706
@<TRIPOS>BOND
     1     1     3  ar
     2     4     1   1
     3     1    29  ar
     4     2     4   1
     5    22     2   1
     6     2    27   1
     7    19     5   1
     8    28     6   2
     9    28     7   2
    10     9     8  ar
    11    11     8  ar
    12    12     9  ar
    13    13    10  ar
    14    21    10  ar
    15    24    11  ar
    16    26    12  ar
    17    27    13  ar
    18    14    21  ar
    19    25    14  ar
    20    22    15   2
    21    15    25   1
    22    23    16   2
    23    16    24   1
    24    18    17   1
    25    17    22   1
    26    28    18  am
    27    21    19   1
    28    23    20   1
    29    20    26   1
    30    23    28   1
    31    24    26  ar
    32    25    27  ar
    33     4    30   1
    34     4    31   1
    35     5    32   1
    36     5    33   1
    37     5    34   1
    38     8    35   1
    39     9    36   1
    40    10    37   1
    41    11    38   1
    42    12    39   1
    43    13    40   1
    44    14    41   1
    45    15    42   1
    46    16    43   1
    47    17    44   1
    48    17    45   1
    49    18    46   1
@<TRIPOS>SUBSTRUCTURE
     1  FG5      1

