@<TRIPOS>MOLECULE
3ivg_ligand_002
    46    49
SMALL
GAST_HUCK
****
This file was generated by PARSER (from files_GN.cpp)

@<TRIPOS>ATOM
      1 C           8.3946  -14.3705   41.5803 C.2         1 FG5       0.0635
      2 N           8.1911  -14.1699   39.2063 N.pl3       1 FG5      -0.2501
      3 O           7.4209  -13.7870   42.3109 O.co2       1 FG5      -0.5663
      4 CA          8.0309  -15.0557   40.3337 C.3         1 FG5       0.1031
      5 CAA        12.4347  -12.2583   34.7437 C.3         1 FG5       0.0567
      6 OAC         3.1744  -15.7775   38.4582 O.2         1 FG5      -0.1460
      7 OAD         5.5652  -16.1795   39.0769 O.2         1 FG5      -0.1460
      8 CAF         5.5834  -17.8201   32.2893 C.ar        1 FG5      -0.0767
      9 CAG         6.8301  -18.1776   32.8533 C.ar        1 FG5      -0.0734
     10 CAH        11.6583  -14.2021   37.7764 C.ar        1 FG5      -0.0489
     11 CAI         4.6380  -17.0991   33.0485 C.ar        1 FG5      -0.0712
     12 CAJ         7.1430  -17.8247   34.1787 C.ar        1 FG5      -0.0310
     13 CAK        10.6245  -14.5802   38.6533 C.ar        1 FG5      -0.0524
     14 CAL        10.1609  -12.6613   36.6242 C.ar        1 FG5      -0.0541
     15 CAM         7.8118  -12.6672   37.5905 C.2         1 FG5      -0.0688
     16 CAN         4.2637  -16.0703   35.3534 C.2         1 FG5      -0.0189
     17 CAO         5.8355  -13.1374   39.0782 C.3         1 FG5       0.0846
     18 NAQ         4.9089  -13.7215   38.1679 N.am        1 FG5      -0.2288
     19 OAR        12.5591  -12.9866   35.9717 O.3         1 FG5      -0.3308
     20 OAS         6.2500  -16.6913   36.2171 O.3         1 FG5      -0.2287
     21 CAU        11.4498  -13.2381   36.7640 C.ar        1 FG5       0.0691
     22 CAV         7.2407  -13.3599   38.6579 C.2         1 FG5       0.0618
     23 CAW         5.0783  -16.0514   36.4828 C.2         1 FG5       0.2522
     24 CAX         4.9664  -16.7495   34.3675 C.ar        1 FG5      -0.0094
     25 CAY         9.1360  -13.0565   37.5074 C.ar        1 FG5      -0.0477
     26 CAZ         6.1928  -17.1104   34.9264 C.ar        1 FG5       0.1269
     27 CBA         9.3508  -13.9940   38.5197 C.ar        1 FG5       0.0540
     28 SBC         4.6535  -15.3837   38.0275 S.o2        1 FG5       0.1039
     29 OXT         9.6915  -14.1170   41.8900 O.co2       1 FG5      -0.5663
     30 H1          6.9982  -15.4209   40.4173 H           1 FG5       0.0766
     31 H2          8.6507  -15.9385   40.2257 H           1 FG5       0.0766
     32 H3         13.4323  -12.1657   34.3044 H           1 FG5       0.0573
     33 H4         12.0439  -11.2533   34.9172 H           1 FG5       0.0573
     34 H5         11.7998  -12.7937   34.0404 H           1 FG5       0.0573
     35 H6          5.3626  -18.0974   31.3266 H           1 FG5       0.0527
     36 H7          7.5114  -18.7127   32.2938 H           1 FG5       0.0542
     37 H8         12.5758  -14.6411   37.8766 H           1 FG5       0.0453
     38 H9          3.7302  -16.8511   32.6503 H           1 FG5       0.0546
     39 H10         8.0404  -18.0889   34.5992 H           1 FG5       0.0562
     40 H11        10.8021  -15.2805   39.3729 H           1 FG5       0.0517
     41 H12         9.9658  -11.9711   35.9016 H           1 FG5       0.0403
     42 H13         7.3452  -11.9897   36.9849 H           1 FG5       0.0155
     43 H14         3.3249  -15.6796   35.2796 H           1 FG5       0.0361
     44 H15         5.6462  -13.5240   40.0812 H           1 FG5       0.0685
     45 H16         5.6432  -12.0663   39.1118 H           1 FG5       0.0685
     46 H17         4.4916  -13.1362   37.5067 H           1 FG5       0.1706
@<TRIPOS>BOND
     1     1     3  ar
     2     4     1   1
     3     1    29  ar
     4     2     4   1
     5    22     2   1
     6     2    27   1
     7    19     5   1
     8    28     6   2
     9    28     7   2
    10     9     8  ar
    11    11     8  ar
    12    12     9  ar
    13    13    10  ar
    14    21    10  ar
    15    24    11  ar
    16    26    12  ar
    17    27    13  ar
    18    14    21  ar
    19    25    14  ar
    20    22    15   2
    21    15    25   1
    22    23    16   2
    23    16    24   1
    24    18    17   1
    25    17    22   1
    26    28    18  am
    27    21    19   1
    28    23    20   1
    29    20    26   1
    30    23    28   1
    31    24    26  ar
    32    25    27  ar
    33     4    30   1
    34     4    31   1
    35     5    32   1
    36     5    33   1
    37     5    34   1
    38     8    35   1
    39     9    36   1
    40    10    37   1
    41    11    38   1
    42    12    39   1
    43    13    40   1
    44    14    41   1
    45    15    42   1
    46    16    43   1
    47    17    44   1
    48    17    45   1
    49    18    46   1
@<TRIPOS>SUBSTRUCTURE
     1  FG5      1

