@<TRIPOS>MOLECULE
3ivg_ligand_089
    46    49
SMALL
GAST_HUCK
****
This file was generated by PARSER (from files_GN.cpp)

@<TRIPOS>ATOM
      1 C           6.8261  -15.0484   35.7114 C.2         1 FG5       0.0635
      2 N           5.0044  -13.9203   36.8653 N.pl3       1 FG5      -0.2501
      3 O           7.9775  -14.9958   35.0042 O.co2       1 FG5      -0.5663
      4 CA          5.9292  -13.8801   35.7609 C.3         1 FG5       0.1031
      5 CAA        -0.7022  -16.3275   37.5622 C.3         1 FG5       0.0567
      6 OAC         9.9464  -14.6875   37.3150 O.2         1 FG5      -0.1460
      7 OAD        10.0919  -13.5484   39.6033 O.2         1 FG5      -0.1460
      8 CAF         9.7777   -8.0017   35.4088 C.ar        1 FG5      -0.0767
      9 CAG         8.8926   -8.6169   34.4926 C.ar        1 FG5      -0.0734
     10 CAH         1.4975  -14.7798   35.8597 C.ar        1 FG5      -0.0489
     11 CAI        10.3190   -8.7331   36.4876 C.ar        1 FG5      -0.0712
     12 CAJ         8.5043   -9.9598   34.6708 C.ar        1 FG5      -0.0310
     13 CAK         2.8714  -14.5447   35.6652 C.ar        1 FG5      -0.0524
     14 CAL         1.7417  -14.3586   38.2581 C.ar        1 FG5      -0.0541
     15 CAM         4.1301  -13.7849   38.9202 C.2         1 FG5      -0.0688
     16 CAN        10.2187  -11.0294   37.6144 C.2         1 FG5      -0.0189
     17 CAO         6.5910  -13.1858   38.7442 C.3         1 FG5       0.0846
     18 NAQ         7.6649  -14.0871   38.4845 N.am        1 FG5      -0.2288
     19 OAR        -0.4037  -14.9443   37.3055 O.3         1 FG5      -0.3308
     20 OAS         8.7393  -11.9175   36.1797 O.3         1 FG5      -0.2287
     21 CAU         0.9329  -14.7066   37.1524 C.ar        1 FG5       0.0691
     22 CAV         5.3011  -13.6541   38.1709 C.2         1 FG5       0.0618
     23 CAW         9.4418  -12.1465   37.3131 C.2         1 FG5       0.2522
     24 CAX         9.9177  -10.0703   36.6592 C.ar        1 FG5      -0.0094
     25 CAY         3.1134  -14.1281   38.0442 C.ar        1 FG5      -0.0477
     26 CAZ         9.0166  -10.6612   35.7727 C.ar        1 FG5       0.1269
     27 CBA         3.6825  -14.2103   36.7716 C.ar        1 FG5       0.0540
     28 SBC         9.2644  -13.5954   38.2473 S.o2        1 FG5       0.1039
     29 OXT         6.5832  -16.1518   36.4556 O.co2       1 FG5      -0.5663
     30 H1          5.4183  -13.8229   34.8000 H           1 FG5       0.0766
     31 H2          6.5163  -12.9693   35.8411 H           1 FG5       0.0766
     32 H3         -1.7854  -16.4423   37.5612 H           1 FG5       0.0573
     33 H4         -0.3259  -16.6295   38.5419 H           1 FG5       0.0573
     34 H5         -0.2926  -16.9884   36.7927 H           1 FG5       0.0573
     35 H6         10.0396   -7.0232   35.2797 H           1 FG5       0.0527
     36 H7          8.5343   -8.0886   33.6943 H           1 FG5       0.0542
     37 H8          0.9068  -15.0160   35.0584 H           1 FG5       0.0453
     38 H9         10.9712   -8.2949   37.1406 H           1 FG5       0.0546
     39 H10         7.8610  -10.4132   34.0166 H           1 FG5       0.0562
     40 H11         3.2618  -14.6234   34.7265 H           1 FG5       0.0517
     41 H12         1.3405  -14.2827   39.1955 H           1 FG5       0.0403
     42 H13         4.0273  -13.6235   39.9248 H           1 FG5       0.0155
     43 H14        10.8567  -10.9214   38.4039 H           1 FG5       0.0361
     44 H15         6.7961  -12.2018   38.3227 H           1 FG5       0.0685
     45 H16         6.5071  -13.0697   39.8275 H           1 FG5       0.0685
     46 H17         7.5119  -15.0301   38.6516 H           1 FG5       0.1706
@<TRIPOS>BOND
     1     1     3  ar
     2     4     1   1
     3     1    29  ar
     4     2     4   1
     5    22     2   1
     6     2    27   1
     7    19     5   1
     8    28     6   2
     9    28     7   2
    10     9     8  ar
    11    11     8  ar
    12    12     9  ar
    13    13    10  ar
    14    21    10  ar
    15    24    11  ar
    16    26    12  ar
    17    27    13  ar
    18    14    21  ar
    19    25    14  ar
    20    22    15   2
    21    15    25   1
    22    23    16   2
    23    16    24   1
    24    18    17   1
    25    17    22   1
    26    28    18  am
    27    21    19   1
    28    23    20   1
    29    20    26   1
    30    23    28   1
    31    24    26  ar
    32    25    27  ar
    33     4    30   1
    34     4    31   1
    35     5    32   1
    36     5    33   1
    37     5    34   1
    38     8    35   1
    39     9    36   1
    40    10    37   1
    41    11    38   1
    42    12    39   1
    43    13    40   1
    44    14    41   1
    45    15    42   1
    46    16    43   1
    47    17    44   1
    48    17    45   1
    49    18    46   1
@<TRIPOS>SUBSTRUCTURE
     1  FG5      1

