@<TRIPOS>MOLECULE
3ivg_ligand_015
    46    49
SMALL
GAST_HUCK
****
This file was generated by PARSER (from files_GN.cpp)

@<TRIPOS>ATOM
      1 C           2.2970  -13.9030   38.3645 C.2         1 FG5       0.0635
      2 N           1.9527  -12.4908   36.4127 N.pl3       1 FG5      -0.2501
      3 O           2.5934  -12.8645   39.1970 O.co2       1 FG5      -0.5663
      4 CA          1.5197  -13.6618   37.1444 C.3         1 FG5       0.1031
      5 CAA        -0.7898   -7.4463   33.9617 C.3         1 FG5       0.0567
      6 OAC         4.8234  -15.1170   38.8585 O.2         1 FG5      -0.1460
      7 OAD         7.1354  -14.7088   37.7645 O.2         1 FG5      -0.1460
      8 CAF         4.2265  -19.9673   34.0668 C.ar        1 FG5      -0.0767
      9 CAG         5.6335  -20.1248   34.0917 C.ar        1 FG5      -0.0734
     10 CAH        -0.5566   -9.7029   36.3970 C.ar        1 FG5      -0.0489
     11 CAI         3.6160  -18.8632   34.6985 C.ar        1 FG5      -0.0712
     12 CAJ         6.4437  -19.1770   34.7496 C.ar        1 FG5      -0.0310
     13 CAK        -0.0466  -10.9699   36.7236 C.ar        1 FG5      -0.0524
     14 CAL         1.4810   -9.1806   35.1475 C.ar        1 FG5      -0.0541
     15 CAM         3.1557  -11.0841   35.1476 C.2         1 FG5      -0.0688
     16 CAN         4.1384  -16.7916   36.0696 C.2         1 FG5      -0.0189
     17 CAO         4.2425  -13.3267   35.6087 C.3         1 FG5       0.0846
     18 NAQ         4.9742  -13.4088   36.8275 N.am        1 FG5      -0.2288
     19 OAR        -0.3106   -7.5720   35.3145 O.3         1 FG5      -0.3308
     20 OAS         6.3773  -17.0697   36.0838 O.3         1 FG5      -0.2287
     21 CAU         0.1919   -8.8088   35.6001 C.ar        1 FG5       0.0691
     22 CAV         3.1342  -12.3455   35.7458 C.2         1 FG5       0.0618
     23 CAW         5.3560  -16.2719   36.4985 C.2         1 FG5       0.2522
     24 CAX         4.4369  -17.9382   35.3588 C.ar        1 FG5      -0.0094
     25 CAY         1.9657  -10.4588   35.4771 C.ar        1 FG5      -0.0477
     26 CAZ         5.8271  -18.0874   35.3860 C.ar        1 FG5       0.1269
     27 CBA         1.2319  -11.3511   36.2573 C.ar        1 FG5       0.0540
     28 SBC         5.5764  -14.8539   37.4694 S.o2        1 FG5       0.1039
     29 OXT         2.4526  -15.1610   38.8404 O.co2       1 FG5      -0.5663
     30 H1          0.4717  -13.5888   37.4471 H           1 FG5       0.0766
     31 H2          1.5917  -14.5402   36.4944 H           1 FG5       0.0766
     32 H3         -1.2010   -6.4413   33.8346 H           1 FG5       0.0573
     33 H4         -1.5844   -8.1697   33.7453 H           1 FG5       0.0573
     34 H5          0.0255   -7.5734   33.2393 H           1 FG5       0.0573
     35 H6          3.6480  -20.6633   33.5863 H           1 FG5       0.0527
     36 H7          6.0672  -20.9279   33.6308 H           1 FG5       0.0542
     37 H8         -1.4797   -9.4246   36.7411 H           1 FG5       0.0453
     38 H9          2.6026  -18.7417   34.6756 H           1 FG5       0.0546
     39 H10         7.4597  -19.2761   34.7697 H           1 FG5       0.0562
     40 H11        -0.6079  -11.6017   37.3007 H           1 FG5       0.0517
     41 H12         2.0390   -8.5406   34.5872 H           1 FG5       0.0403
     42 H13         3.9059  -10.6943   34.5725 H           1 FG5       0.0155
     43 H14         3.2124  -16.4027   36.2514 H           1 FG5       0.0361
     44 H15         3.8166  -14.2852   35.3207 H           1 FG5       0.0685
     45 H16         4.9427  -13.0199   34.8235 H           1 FG5       0.0685
     46 H17         5.3728  -12.5825   37.1600 H           1 FG5       0.1706
@<TRIPOS>BOND
     1     1     3  ar
     2     4     1   1
     3     1    29  ar
     4     2     4   1
     5    22     2   1
     6     2    27   1
     7    19     5   1
     8    28     6   2
     9    28     7   2
    10     9     8  ar
    11    11     8  ar
    12    12     9  ar
    13    13    10  ar
    14    21    10  ar
    15    24    11  ar
    16    26    12  ar
    17    27    13  ar
    18    14    21  ar
    19    25    14  ar
    20    22    15   2
    21    15    25   1
    22    23    16   2
    23    16    24   1
    24    18    17   1
    25    17    22   1
    26    28    18  am
    27    21    19   1
    28    23    20   1
    29    20    26   1
    30    23    28   1
    31    24    26  ar
    32    25    27  ar
    33     4    30   1
    34     4    31   1
    35     5    32   1
    36     5    33   1
    37     5    34   1
    38     8    35   1
    39     9    36   1
    40    10    37   1
    41    11    38   1
    42    12    39   1
    43    13    40   1
    44    14    41   1
    45    15    42   1
    46    16    43   1
    47    17    44   1
    48    17    45   1
    49    18    46   1
@<TRIPOS>SUBSTRUCTURE
     1  FG5      1

