@<TRIPOS>MOLECULE
3ivg_ligand_008
    46    49
SMALL
GAST_HUCK
****
This file was generated by PARSER (from files_GN.cpp)

@<TRIPOS>ATOM
      1 C           3.2556  -14.5006   37.7142 C.2         1 FG5       0.0635
      2 N           5.2132  -13.0539   37.7999 N.pl3       1 FG5      -0.2501
      3 O           2.8032  -14.8326   36.4846 O.co2       1 FG5      -0.5663
      4 CA          3.7786  -13.1391   37.9483 C.3         1 FG5       0.1031
      5 CAA        10.6727  -14.5777   40.7112 C.3         1 FG5       0.0567
      6 OAC         8.4249  -13.6087   33.6045 O.2         1 FG5      -0.1460
      7 OAD         6.4152  -13.6455   32.0225 O.2         1 FG5      -0.1460
      8 CAF         5.5735  -19.5395   35.5140 C.ar        1 FG5      -0.0767
      9 CAG         4.8992  -18.8527   36.5480 C.ar        1 FG5      -0.0734
     10 CAH         7.1098  -14.1340   40.8590 C.ar        1 FG5      -0.0489
     11 CAI         6.2571  -18.8231   34.5073 C.ar        1 FG5      -0.0712
     12 CAJ         4.8913  -17.4426   36.5816 C.ar        1 FG5      -0.0310
     13 CAK         5.9673  -13.8855   40.0675 C.ar        1 FG5      -0.0524
     14 CAL         8.5535  -13.3063   39.0719 C.ar        1 FG5      -0.0541
     15 CAM         7.2606  -12.6144   36.9982 C.2         1 FG5      -0.0688
     16 CAN         6.7838  -16.4529   33.7161 C.2         1 FG5      -0.0189
     17 CAO         5.3160  -12.2584   35.3811 C.3         1 FG5       0.0846
     18 NAQ         6.2533  -12.2738   34.3075 N.am        1 FG5      -0.2288
     19 OAR         9.4470  -14.0560   41.2449 O.3         1 FG5      -0.3308
     20 OAS         5.6832  -15.3975   35.3707 O.3         1 FG5      -0.2287
     21 CAU         8.4050  -13.8513   40.3733 C.ar        1 FG5       0.0691
     22 CAV         5.8943  -12.6199   36.7001 C.2         1 FG5       0.0618
     23 CAW         6.4197  -15.2129   34.2426 C.2         1 FG5       0.2522
     24 CAX         6.2393  -17.4173   34.5495 C.ar        1 FG5      -0.0094
     25 CAY         7.4041  -13.0925   38.2890 C.ar        1 FG5      -0.0477
     26 CAZ         5.5659  -16.7358   35.5667 C.ar        1 FG5       0.1269
     27 CBA         6.1213  -13.3681   38.7639 C.ar        1 FG5       0.0540
     28 SBC         6.8371  -13.6710   33.5571 S.o2        1 FG5       0.1039
     29 OXT         2.8684  -15.2815   38.7503 O.co2       1 FG5      -0.5663
     30 H1          3.4902  -12.8072   38.9507 H           1 FG5       0.0766
     31 H2          3.2839  -12.4503   37.2581 H           1 FG5       0.0766
     32 H3         11.3424  -14.8079   41.5472 H           1 FG5       0.0573
     33 H4         11.1573  -13.8387   40.0719 H           1 FG5       0.0573
     34 H5         10.4969  -15.4953   40.1488 H           1 FG5       0.0573
     35 H6          5.5602  -20.5599   35.4919 H           1 FG5       0.0527
     36 H7          4.4075  -19.3716   37.2747 H           1 FG5       0.0542
     37 H8          6.9904  -14.5181   41.8004 H           1 FG5       0.0453
     38 H9          6.7470  -19.3141   33.7565 H           1 FG5       0.0546
     39 H10         4.4033  -16.9384   37.3277 H           1 FG5       0.0562
     40 H11         5.0388  -14.0812   40.4406 H           1 FG5       0.0517
     41 H12         9.4763  -13.0716   38.7016 H           1 FG5       0.0403
     42 H13         8.0250  -12.3364   36.3780 H           1 FG5       0.0155
     43 H14         7.3314  -16.6222   32.8736 H           1 FG5       0.0361
     44 H15         4.5014  -12.9403   35.1340 H           1 FG5       0.0685
     45 H16         4.9015  -11.2545   35.4477 H           1 FG5       0.0685
     46 H17         6.7094  -11.4363   34.0987 H           1 FG5       0.1706
@<TRIPOS>BOND
     1     1     3  ar
     2     4     1   1
     3     1    29  ar
     4     2     4   1
     5    22     2   1
     6     2    27   1
     7    19     5   1
     8    28     6   2
     9    28     7   2
    10     9     8  ar
    11    11     8  ar
    12    12     9  ar
    13    13    10  ar
    14    21    10  ar
    15    24    11  ar
    16    26    12  ar
    17    27    13  ar
    18    14    21  ar
    19    25    14  ar
    20    22    15   2
    21    15    25   1
    22    23    16   2
    23    16    24   1
    24    18    17   1
    25    17    22   1
    26    28    18  am
    27    21    19   1
    28    23    20   1
    29    20    26   1
    30    23    28   1
    31    24    26  ar
    32    25    27  ar
    33     4    30   1
    34     4    31   1
    35     5    32   1
    36     5    33   1
    37     5    34   1
    38     8    35   1
    39     9    36   1
    40    10    37   1
    41    11    38   1
    42    12    39   1
    43    13    40   1
    44    14    41   1
    45    15    42   1
    46    16    43   1
    47    17    44   1
    48    17    45   1
    49    18    46   1
@<TRIPOS>SUBSTRUCTURE
     1  FG5      1

