@<TRIPOS>MOLECULE
3ivg_ligand_035
    46    49
SMALL
GAST_HUCK
****
This file was generated by PARSER (from files_GN.cpp)

@<TRIPOS>ATOM
      1 C           6.7983  -14.7476   36.1340 C.2         1 FG5       0.0635
      2 N           4.6845  -13.8331   36.9551 N.pl3       1 FG5      -0.2501
      3 O           7.9766  -14.6611   35.4738 O.co2       1 FG5      -0.5663
      4 CA          5.9039  -13.5775   36.2194 C.3         1 FG5       0.1031
      5 CAA        -0.2414  -17.4949   35.2306 C.3         1 FG5       0.0567
      6 OAC         6.4969  -15.7862   40.7705 O.2         1 FG5      -0.1460
      7 OAD         7.2398  -13.8130   42.2330 O.2         1 FG5      -0.1460
      8 CAF        12.1542  -13.9496   37.4243 C.ar        1 FG5      -0.0767
      9 CAG        11.5665  -12.7629   36.9279 C.ar        1 FG5      -0.0734
     10 CAH         2.1007  -15.5588   34.8481 C.ar        1 FG5      -0.0489
     11 CAI        11.4902  -14.7244   38.4010 C.ar        1 FG5      -0.0712
     12 CAJ        10.3103  -12.3319   37.4030 C.ar        1 FG5      -0.0310
     13 CAK         3.3658  -15.0125   35.1499 C.ar        1 FG5      -0.0524
     14 CAL         1.3329  -15.0971   37.1192 C.ar        1 FG5      -0.0541
     15 CAM         3.0905  -13.9102   38.5262 C.2         1 FG5      -0.0688
     16 CAN         9.3425  -14.8307   39.7625 C.2         1 FG5      -0.0189
     17 CAO         5.1532  -12.6488   39.2077 C.3         1 FG5       0.0846
     18 NAQ         5.4139  -13.3814   40.3987 N.am        1 FG5      -0.2288
     19 OAR        -0.1760  -16.0935   35.5528 O.3         1 FG5      -0.3308
     20 OAS         8.4500  -12.9423   38.9489 O.3         1 FG5      -0.2287
     21 CAU         1.0833  -15.6249   35.8322 C.ar        1 FG5       0.0691
     22 CAV         4.3783  -13.4517   38.2301 C.2         1 FG5       0.0618
     23 CAW         8.2400  -13.9813   39.7945 C.2         1 FG5       0.2522
     24 CAX        10.2334  -14.2889   38.8541 C.ar        1 FG5      -0.0094
     25 CAY         2.5951  -14.5364   37.3962 C.ar        1 FG5      -0.0477
     26 CAZ         9.6527  -13.1184   38.3648 C.ar        1 FG5       0.1269
     27 CBA         3.6070  -14.4830   36.4359 C.ar        1 FG5       0.0540
     28 SBC         6.8227  -14.2309   40.7557 S.o2        1 FG5       0.1039
     29 OXT         6.5107  -15.9112   36.7589 O.co2       1 FG5      -0.5663
     30 H1          5.6539  -13.2595   35.2051 H           1 FG5       0.0766
     31 H2          6.4793  -12.7610   36.6531 H           1 FG5       0.0766
     32 H3         -1.2874  -17.7933   35.1942 H           1 FG5       0.0573
     33 H4          0.2565  -18.1063   35.9866 H           1 FG5       0.0573
     34 H5          0.1988  -17.6924   34.2509 H           1 FG5       0.0573
     35 H6         13.0648  -14.2512   37.0715 H           1 FG5       0.0527
     36 H7         12.0566  -12.2042   36.2254 H           1 FG5       0.0542
     37 H8          1.9120  -15.8869   33.9006 H           1 FG5       0.0453
     38 H9         11.9133  -15.5815   38.7664 H           1 FG5       0.0546
     39 H10         9.8720  -11.4772   37.0533 H           1 FG5       0.0562
     40 H11         4.0852  -14.9698   34.4258 H           1 FG5       0.0517
     41 H12         0.5999  -15.0898   37.8349 H           1 FG5       0.0403
     42 H13         2.5745  -13.7758   39.3998 H           1 FG5       0.0155
     43 H14         9.4697  -15.6944   40.2918 H           1 FG5       0.0361
     44 H15         6.0721  -12.2628   38.7812 H           1 FG5       0.0685
     45 H16         4.5540  -11.7795   39.4874 H           1 FG5       0.0685
     46 H17         4.6795  -13.4928   41.0199 H           1 FG5       0.1706
@<TRIPOS>BOND
     1     1     3  ar
     2     4     1   1
     3     1    29  ar
     4     2     4   1
     5    22     2   1
     6     2    27   1
     7    19     5   1
     8    28     6   2
     9    28     7   2
    10     9     8  ar
    11    11     8  ar
    12    12     9  ar
    13    13    10  ar
    14    21    10  ar
    15    24    11  ar
    16    26    12  ar
    17    27    13  ar
    18    14    21  ar
    19    25    14  ar
    20    22    15   2
    21    15    25   1
    22    23    16   2
    23    16    24   1
    24    18    17   1
    25    17    22   1
    26    28    18  am
    27    21    19   1
    28    23    20   1
    29    20    26   1
    30    23    28   1
    31    24    26  ar
    32    25    27  ar
    33     4    30   1
    34     4    31   1
    35     5    32   1
    36     5    33   1
    37     5    34   1
    38     8    35   1
    39     9    36   1
    40    10    37   1
    41    11    38   1
    42    12    39   1
    43    13    40   1
    44    14    41   1
    45    15    42   1
    46    16    43   1
    47    17    44   1
    48    17    45   1
    49    18    46   1
@<TRIPOS>SUBSTRUCTURE
     1  FG5      1

