@<TRIPOS>MOLECULE
3ivg_ligand_017
    46    49
SMALL
GAST_HUCK
****
This file was generated by PARSER (from files_GN.cpp)

@<TRIPOS>ATOM
      1 C           5.8500  -13.1972   39.8739 C.2         1 FG5       0.0635
      2 N           6.1299  -13.2555   37.4844 N.pl3       1 FG5      -0.2501
      3 O           6.4080  -13.6928   41.0009 O.co2       1 FG5      -0.5663
      4 CA          5.7500  -14.0130   38.6521 C.3         1 FG5       0.1031
      5 CAA        11.4787  -10.9209   35.2508 C.3         1 FG5       0.0567
      6 OAC         1.9439  -15.2377   38.2476 O.2         1 FG5      -0.1460
      7 OAD         0.6883  -14.3829   36.1685 O.2         1 FG5      -0.1460
      8 CAF        -0.5818   -9.4034   41.0343 C.ar        1 FG5      -0.0767
      9 CAG        -1.5581   -9.3243   40.0143 C.ar        1 FG5      -0.0734
     10 CAH         9.8014  -13.3185   36.6959 C.ar        1 FG5      -0.0489
     11 CAI         0.4546  -10.3588   40.9588 C.ar        1 FG5      -0.0712
     12 CAJ        -1.5008  -10.1891   38.9015 C.ar        1 FG5      -0.0310
     13 CAK         8.6316  -13.6394   37.4209 C.ar        1 FG5      -0.0524
     14 CAL         8.4951  -11.9611   35.1374 C.ar        1 FG5      -0.0541
     15 CAM         6.0318  -11.9037   35.6948 C.2         1 FG5      -0.0688
     16 CAN         1.3602  -12.2424   39.4918 C.2         1 FG5      -0.0189
     17 CAO         3.8307  -12.3173   36.8574 C.3         1 FG5       0.0846
     18 NAQ         3.1440  -13.5311   36.5864 N.am        1 FG5      -0.2288
     19 OAR        10.8842  -12.1748   34.8678 O.3         1 FG5      -0.3308
     20 OAS        -0.1804  -12.0395   37.8666 O.3         1 FG5      -0.2287
     21 CAU         9.7426  -12.4669   35.5668 C.ar        1 FG5       0.0691
     22 CAV         5.2896  -12.5121   36.7034 C.2         1 FG5       0.0618
     23 CAW         0.9274  -12.7188   38.2556 C.2         1 FG5       0.2522
     24 CAX         0.4943  -11.2200   39.8466 C.ar        1 FG5      -0.0094
     25 CAY         7.3484  -12.2859   35.8751 C.ar        1 FG5      -0.0477
     26 CAZ        -0.4572  -11.1275   38.8297 C.ar        1 FG5       0.1269
     27 CBA         7.3897  -13.1160   36.9978 C.ar        1 FG5       0.0540
     28 SBC         1.6942  -13.9672   37.3273 S.o2        1 FG5       0.1039
     29 OXT         5.2724  -11.9752   39.9217 O.co2       1 FG5      -0.5663
     30 H1          4.7228  -14.3630   38.5719 H           1 FG5       0.0766
     31 H2          6.3712  -14.9108   38.7467 H           1 FG5       0.0766
     32 H3         12.3942  -10.7875   34.6738 H           1 FG5       0.0573
     33 H4         11.7425  -10.9108   36.3120 H           1 FG5       0.0573
     34 H5         10.8145  -10.0800   35.0299 H           1 FG5       0.0573
     35 H6         -0.6283   -8.7675   41.8318 H           1 FG5       0.0527
     36 H7         -2.3105   -8.6361   40.0822 H           1 FG5       0.0542
     37 H8         10.7001  -13.7097   36.9905 H           1 FG5       0.0453
     38 H9          1.1618  -10.4215   41.6943 H           1 FG5       0.0546
     39 H10        -2.2030  -10.1382   38.1580 H           1 FG5       0.0562
     40 H11         8.6916  -14.2491   38.2381 H           1 FG5       0.0517
     41 H12         8.4312  -11.3684   34.3059 H           1 FG5       0.0403
     42 H13         5.6818  -11.2821   34.9647 H           1 FG5       0.0155
     43 H14         2.1704  -12.5661   40.0252 H           1 FG5       0.0361
     44 H15         3.6435  -11.9527   37.8668 H           1 FG5       0.0685
     45 H16         3.4612  -11.5633   36.1565 H           1 FG5       0.0685
     46 H17         3.3801  -14.0002   35.7703 H           1 FG5       0.1706
@<TRIPOS>BOND
     1     1     3  ar
     2     4     1   1
     3     1    29  ar
     4     2     4   1
     5    22     2   1
     6     2    27   1
     7    19     5   1
     8    28     6   2
     9    28     7   2
    10     9     8  ar
    11    11     8  ar
    12    12     9  ar
    13    13    10  ar
    14    21    10  ar
    15    24    11  ar
    16    26    12  ar
    17    27    13  ar
    18    14    21  ar
    19    25    14  ar
    20    22    15   2
    21    15    25   1
    22    23    16   2
    23    16    24   1
    24    18    17   1
    25    17    22   1
    26    28    18  am
    27    21    19   1
    28    23    20   1
    29    20    26   1
    30    23    28   1
    31    24    26  ar
    32    25    27  ar
    33     4    30   1
    34     4    31   1
    35     5    32   1
    36     5    33   1
    37     5    34   1
    38     8    35   1
    39     9    36   1
    40    10    37   1
    41    11    38   1
    42    12    39   1
    43    13    40   1
    44    14    41   1
    45    15    42   1
    46    16    43   1
    47    17    44   1
    48    17    45   1
    49    18    46   1
@<TRIPOS>SUBSTRUCTURE
     1  FG5      1

