@<TRIPOS>MOLECULE
3ivg_ligand_023
    46    49
SMALL
GAST_HUCK
****
This file was generated by PARSER (from files_GN.cpp)

@<TRIPOS>ATOM
      1 C           2.4697  -13.9521   38.5886 C.2         1 FG5       0.0635
      2 N           1.1043  -13.3618   36.6884 N.pl3       1 FG5      -0.2501
      3 O           3.5318  -13.1250   38.4585 O.co2       1 FG5      -0.5663
      4 CA          1.1417  -13.5121   38.1231 C.3         1 FG5       0.1031
      5 CAA         1.2626   -8.7762   32.3814 C.3         1 FG5       0.0567
      6 OAC         0.1327  -18.4333   33.2297 O.2         1 FG5      -0.1460
      7 OAD         0.8224  -18.8723   35.6241 O.2         1 FG5      -0.1460
      8 CAF         6.7724  -16.6918   32.6114 C.ar        1 FG5      -0.0767
      9 CAG         6.9255  -16.3133   33.9643 C.ar        1 FG5      -0.0734
     10 CAH         2.2145   -9.9928   35.4523 C.ar        1 FG5      -0.0489
     11 CAI         5.5170  -17.1044   32.1214 C.ar        1 FG5      -0.0712
     12 CAJ         5.8211  -16.3475   34.8446 C.ar        1 FG5      -0.0310
     13 CAK         1.9334  -10.9836   36.4187 C.ar        1 FG5      -0.0524
     14 CAL         1.6052  -11.5305   33.6531 C.ar        1 FG5      -0.0541
     15 CAM         0.8309  -13.7890   34.5064 C.2         1 FG5      -0.0688
     16 CAN         3.0993  -17.4987   32.8399 C.2         1 FG5      -0.0189
     17 CAO         0.1988  -15.6705   36.1204 C.3         1 FG5       0.0846
     18 NAQ        -0.1102  -16.4724   34.9814 N.am        1 FG5      -0.2288
     19 OAR         2.3624   -9.2609   33.1806 O.3         1 FG5      -0.3308
     20 OAS         3.3899  -16.9041   34.9890 O.3         1 FG5      -0.2287
     21 CAU         2.0410  -10.2514   34.0726 C.ar        1 FG5       0.0691
     22 CAV         0.7042  -14.3135   35.7948 C.2         1 FG5       0.0618
     23 CAW         2.4860  -17.3548   34.0849 C.2         1 FG5       0.2522
     24 CAX         4.4241  -17.1293   33.0104 C.ar        1 FG5      -0.0094
     25 CAY         1.3110  -12.4969   34.6320 C.ar        1 FG5      -0.0477
     26 CAZ         4.5737  -16.7592   34.3470 C.ar        1 FG5       0.1269
     27 CBA         1.4691  -12.2482   35.9968 C.ar        1 FG5       0.0540
     28 SBC         0.8487  -17.7655   34.4812 S.o2        1 FG5       0.1039
     29 OXT         2.7087  -15.2706   38.7880 O.co2       1 FG5      -0.5663
     30 H1          0.8828  -12.5762   38.6149 H           1 FG5       0.0766
     31 H2          0.4014  -14.2433   38.4498 H           1 FG5       0.0766
     32 H3          1.6148   -7.9160   31.8090 H           1 FG5       0.0573
     33 H4          0.4293   -8.4498   33.0065 H           1 FG5       0.0573
     34 H5          0.9187   -9.5350   31.6777 H           1 FG5       0.0573
     35 H6          7.5775  -16.6658   31.9845 H           1 FG5       0.0527
     36 H7          7.8416  -16.0146   34.3080 H           1 FG5       0.0542
     37 H8          2.5487   -9.0756   35.7576 H           1 FG5       0.0453
     38 H9          5.4018  -17.3819   31.1444 H           1 FG5       0.0546
     39 H10         5.9275  -16.0856   35.8280 H           1 FG5       0.0562
     40 H11         2.0641  -10.7816   37.4063 H           1 FG5       0.0517
     41 H12         1.5038  -11.7573   32.6634 H           1 FG5       0.0403
     42 H13         0.6041  -14.2542   33.6290 H           1 FG5       0.0155
     43 H14         2.6629  -17.8342   31.9768 H           1 FG5       0.0361
     44 H15         0.9322  -16.1760   36.7515 H           1 FG5       0.0685
     45 H16        -0.7216  -15.5666   36.6990 H           1 FG5       0.0685
     46 H17        -0.8763  -16.2331   34.4346 H           1 FG5       0.1706
@<TRIPOS>BOND
     1     1     3  ar
     2     4     1   1
     3     1    29  ar
     4     2     4   1
     5    22     2   1
     6     2    27   1
     7    19     5   1
     8    28     6   2
     9    28     7   2
    10     9     8  ar
    11    11     8  ar
    12    12     9  ar
    13    13    10  ar
    14    21    10  ar
    15    24    11  ar
    16    26    12  ar
    17    27    13  ar
    18    14    21  ar
    19    25    14  ar
    20    22    15   2
    21    15    25   1
    22    23    16   2
    23    16    24   1
    24    18    17   1
    25    17    22   1
    26    28    18  am
    27    21    19   1
    28    23    20   1
    29    20    26   1
    30    23    28   1
    31    24    26  ar
    32    25    27  ar
    33     4    30   1
    34     4    31   1
    35     5    32   1
    36     5    33   1
    37     5    34   1
    38     8    35   1
    39     9    36   1
    40    10    37   1
    41    11    38   1
    42    12    39   1
    43    13    40   1
    44    14    41   1
    45    15    42   1
    46    16    43   1
    47    17    44   1
    48    17    45   1
    49    18    46   1
@<TRIPOS>SUBSTRUCTURE
     1  FG5      1

