@<TRIPOS>MOLECULE
3ivg_ligand_011
    46    49
SMALL
GAST_HUCK
****
This file was generated by PARSER (from files_GN.cpp)

@<TRIPOS>ATOM
      1 C           2.8415  -13.9316   38.5418 C.2         1 FG5       0.0635
      2 N           5.2150  -13.6499   38.3581 N.pl3       1 FG5      -0.2501
      3 O           2.6208  -15.2478   38.7634 O.co2       1 FG5      -0.5663
      4 CA          4.0340  -13.2616   39.0864 C.3         1 FG5       0.1031
      5 CAA         7.2329  -13.4031   32.4607 C.3         1 FG5       0.0567
      6 OAC         9.7091  -14.3899   41.9604 O.2         1 FG5      -0.1460
      7 OAD         7.8784  -12.8232   41.2001 O.2         1 FG5      -0.1460
      8 CAF        12.6610  -12.7977   35.9135 C.ar        1 FG5      -0.0767
      9 CAG        11.6647  -11.8410   35.6183 C.ar        1 FG5      -0.0734
     10 CAH         5.4344  -12.0174   34.9715 C.ar        1 FG5      -0.0489
     11 CAI        12.5178  -13.6564   37.0282 C.ar        1 FG5      -0.0712
     12 CAJ        10.5271  -11.7146   36.4417 C.ar        1 FG5      -0.0310
     13 CAK         4.8661  -12.3044   36.2336 C.ar        1 FG5      -0.0524
     14 CAL         7.3580  -13.4388   35.4973 C.ar        1 FG5      -0.0541
     15 CAM         7.1414  -14.5970   37.7227 C.2         1 FG5      -0.0688
     16 CAN        10.9658  -14.1890   38.9848 C.2         1 FG5      -0.0189
     17 CAO         6.4020  -15.2201   40.0475 C.3         1 FG5       0.0846
     18 NAQ         7.7592  -15.3664   40.4626 N.am        1 FG5      -0.2288
     19 OAR         7.2183  -12.2896   33.3739 O.3         1 FG5      -0.3308
     20 OAS         9.4364  -12.6112   38.4925 O.3         1 FG5      -0.2287
     21 CAU         6.6744  -12.5931   34.5951 C.ar        1 FG5       0.0691
     22 CAV         6.2138  -14.4962   38.7595 C.2         1 FG5       0.0618
     23 CAW         9.7638  -13.5974   39.3680 C.2         1 FG5       0.2522
     24 CAX        11.3799  -13.5215   37.8406 C.ar        1 FG5      -0.0094
     25 CAY         6.7394  -13.7496   36.7171 C.ar        1 FG5      -0.0477
     26 CAZ        10.4090  -12.5605   37.5581 C.ar        1 FG5       0.1269
     27 CBA         5.5233  -13.1898   37.1151 C.ar        1 FG5       0.0540
     28 SBC         8.7749  -14.0466   40.7235 S.o2        1 FG5       0.1039
     29 OXT         1.9407  -13.2340   37.8111 O.co2       1 FG5      -0.5663
     30 H1          4.0939  -13.5309   40.1451 H           1 FG5       0.0766
     31 H2          3.9207  -12.1781   39.0533 H           1 FG5       0.0766
     32 H3          7.6411  -13.0585   31.5095 H           1 FG5       0.0573
     33 H4          6.2204  -13.7820   32.2859 H           1 FG5       0.0573
     34 H5          7.8678  -14.2141   32.8246 H           1 FG5       0.0573
     35 H6         13.4829  -12.8746   35.3108 H           1 FG5       0.0527
     36 H7         11.7678  -11.2322   34.8024 H           1 FG5       0.0542
     37 H8          4.9510  -11.3787   34.3329 H           1 FG5       0.0453
     38 H9         13.2359  -14.3543   37.2397 H           1 FG5       0.0546
     39 H10         9.8029  -11.0214   36.2384 H           1 FG5       0.0562
     40 H11         3.9717  -11.8823   36.4951 H           1 FG5       0.0517
     41 H12         8.2659  -13.8433   35.2601 H           1 FG5       0.0403
     42 H13         8.0031  -15.1370   37.7285 H           1 FG5       0.0155
     43 H14        11.4441  -14.9613   39.4510 H           1 FG5       0.0361
     44 H15         5.8792  -14.7188   40.8674 H           1 FG5       0.0685
     45 H16         5.9640  -16.2145   39.9311 H           1 FG5       0.0685
     46 H17         8.0408  -16.2182   40.8460 H           1 FG5       0.1706
@<TRIPOS>BOND
     1     1     3  ar
     2     4     1   1
     3     1    29  ar
     4     2     4   1
     5    22     2   1
     6     2    27   1
     7    19     5   1
     8    28     6   2
     9    28     7   2
    10     9     8  ar
    11    11     8  ar
    12    12     9  ar
    13    13    10  ar
    14    21    10  ar
    15    24    11  ar
    16    26    12  ar
    17    27    13  ar
    18    14    21  ar
    19    25    14  ar
    20    22    15   2
    21    15    25   1
    22    23    16   2
    23    16    24   1
    24    18    17   1
    25    17    22   1
    26    28    18  am
    27    21    19   1
    28    23    20   1
    29    20    26   1
    30    23    28   1
    31    24    26  ar
    32    25    27  ar
    33     4    30   1
    34     4    31   1
    35     5    32   1
    36     5    33   1
    37     5    34   1
    38     8    35   1
    39     9    36   1
    40    10    37   1
    41    11    38   1
    42    12    39   1
    43    13    40   1
    44    14    41   1
    45    15    42   1
    46    16    43   1
    47    17    44   1
    48    17    45   1
    49    18    46   1
@<TRIPOS>SUBSTRUCTURE
     1  FG5      1

