@<TRIPOS>MOLECULE
3ivg_ligand_006
    46    49
SMALL
GAST_HUCK
****
This file was generated by PARSER (from files_GN.cpp)

@<TRIPOS>ATOM
      1 C           3.2880  -14.0214   38.8355 C.2         1 FG5       0.0635
      2 N           5.3425  -13.4929   37.6106 N.pl3       1 FG5      -0.2501
      3 O           3.0827  -15.3438   38.6408 O.co2       1 FG5      -0.5663
      4 CA          3.9438  -13.1788   37.8029 C.3         1 FG5       0.1031
      5 CAA        10.9015  -14.6566   40.6376 C.3         1 FG5       0.0567
      6 OAC         5.7943  -16.6173   34.9448 O.2         1 FG5      -0.1460
      7 OAD         8.2332  -15.8238   34.6115 O.2         1 FG5      -0.1460
      8 CAF         6.4468  -18.6372   28.4563 C.ar        1 FG5      -0.0767
      9 CAG         7.8068  -18.2656   28.4102 C.ar        1 FG5      -0.0734
     10 CAH         7.2636  -13.9203   40.8107 C.ar        1 FG5      -0.0489
     11 CAI         5.6437  -18.2821   29.5587 C.ar        1 FG5      -0.0712
     12 CAJ         8.3837  -17.5330   29.4679 C.ar        1 FG5      -0.0310
     13 CAK         6.1175  -13.6790   40.0142 C.ar        1 FG5      -0.0524
     14 CAL         8.6697  -14.0378   38.8237 C.ar        1 FG5      -0.0541
     15 CAM         7.3627  -13.7475   36.6805 C.2         1 FG5      -0.0688
     16 CAN         5.7223  -17.0814   31.8111 C.2         1 FG5      -0.0189
     17 CAO         5.4222  -13.5477   35.0460 C.3         1 FG5       0.0846
     18 NAQ         6.2415  -14.1233   34.0199 N.am        1 FG5      -0.2288
     19 OAR         9.5925  -14.2888   41.1188 O.3         1 FG5      -0.3308
     20 OAS         7.8986  -16.5083   31.6946 O.3         1 FG5      -0.2287
     21 CAU         8.5490  -14.1004   40.2379 C.ar        1 FG5       0.0691
     22 CAV         5.9973  -13.5962   36.4170 C.2         1 FG5       0.0618
     23 CAW         6.7779  -16.4399   32.4545 C.2         1 FG5       0.2522
     24 CAX         6.2302  -17.5524   30.6099 C.ar        1 FG5      -0.0094
     25 CAY         7.5182  -13.8251   38.0484 C.ar        1 FG5      -0.0477
     26 CAZ         7.5781  -17.1818   30.5663 C.ar        1 FG5       0.1269
     27 CBA         6.2533  -13.6498   38.6091 C.ar        1 FG5       0.0540
     28 SBC         6.7545  -15.7348   34.0358 S.o2        1 FG5       0.1039
     29 OXT         2.7797  -13.4450   39.9530 O.co2       1 FG5      -0.5663
     30 H1          3.8725  -12.1175   38.0925 H           1 FG5       0.0766
     31 H2          3.3706  -13.2959   36.8749 H           1 FG5       0.0766
     32 H3         11.5440  -14.8026   41.5117 H           1 FG5       0.0573
     33 H4         11.3376  -13.8607   40.0242 H           1 FG5       0.0573
     34 H5         10.8647  -15.5931   40.0705 H           1 FG5       0.0573
     35 H6          6.0383  -19.1692   27.6853 H           1 FG5       0.0527
     36 H7          8.3806  -18.5276   27.6097 H           1 FG5       0.0542
     37 H8          7.1714  -13.9649   41.8291 H           1 FG5       0.0453
     38 H9          4.6556  -18.5534   29.6011 H           1 FG5       0.0546
     39 H10         9.3683  -17.2656   29.4518 H           1 FG5       0.0562
     40 H11         5.2021  -13.5400   40.4560 H           1 FG5       0.0517
     41 H12         9.5665  -14.1530   38.3488 H           1 FG5       0.0403
     42 H13         8.1225  -13.8043   35.9977 H           1 FG5       0.0155
     43 H14         4.7700  -17.2017   32.1659 H           1 FG5       0.0361
     44 H15         4.4667  -14.0774   35.0291 H           1 FG5       0.0685
     45 H16         5.2409  -12.4996   34.7945 H           1 FG5       0.0685
     46 H17         6.4260  -13.5839   33.2284 H           1 FG5       0.1706
@<TRIPOS>BOND
     1     1     3  ar
     2     4     1   1
     3     1    29  ar
     4     2     4   1
     5    22     2   1
     6     2    27   1
     7    19     5   1
     8    28     6   2
     9    28     7   2
    10     9     8  ar
    11    11     8  ar
    12    12     9  ar
    13    13    10  ar
    14    21    10  ar
    15    24    11  ar
    16    26    12  ar
    17    27    13  ar
    18    14    21  ar
    19    25    14  ar
    20    22    15   2
    21    15    25   1
    22    23    16   2
    23    16    24   1
    24    18    17   1
    25    17    22   1
    26    28    18  am
    27    21    19   1
    28    23    20   1
    29    20    26   1
    30    23    28   1
    31    24    26  ar
    32    25    27  ar
    33     4    30   1
    34     4    31   1
    35     5    32   1
    36     5    33   1
    37     5    34   1
    38     8    35   1
    39     9    36   1
    40    10    37   1
    41    11    38   1
    42    12    39   1
    43    13    40   1
    44    14    41   1
    45    15    42   1
    46    16    43   1
    47    17    44   1
    48    17    45   1
    49    18    46   1
@<TRIPOS>SUBSTRUCTURE
     1  FG5      1

