@<TRIPOS>MOLECULE
3ivg_ligand_028
    46    49
SMALL
GAST_HUCK
****
This file was generated by PARSER (from files_GN.cpp)

@<TRIPOS>ATOM
      1 C           2.3751  -14.5561   37.5476 C.2         1 FG5       0.0635
      2 N           3.3007  -12.6177   36.4782 N.pl3       1 FG5      -0.2501
      3 O           2.3679  -15.3657   36.4625 O.co2       1 FG5      -0.5663
      4 CA          2.2922  -13.0902   37.3871 C.3         1 FG5       0.1031
      5 CAA         2.5132   -9.6658   30.8991 C.3         1 FG5       0.0567
      6 OAC         7.8166  -15.0367   39.3674 O.2         1 FG5      -0.1460
      7 OAD         7.8056  -12.5674   39.7856 O.2         1 FG5      -0.1460
      8 CAF        13.7422  -13.2201   36.1444 C.ar        1 FG5      -0.0767
      9 CAG        13.1731  -12.1001   35.4983 C.ar        1 FG5      -0.0734
     10 CAH         1.9246  -11.6883   33.1187 C.ar        1 FG5      -0.0489
     11 CAI        12.9608  -14.0057   37.0233 C.ar        1 FG5      -0.0712
     12 CAJ        11.8270  -11.7483   35.7245 C.ar        1 FG5      -0.0310
     13 CAK         1.8717  -12.1380   34.4533 C.ar        1 FG5      -0.0524
     14 CAL         4.3316  -11.3308   33.3047 C.ar        1 FG5      -0.0541
     15 CAM         5.2511  -12.0033   35.5704 C.2         1 FG5      -0.0688
     16 CAN        10.6298  -14.1983   38.0360 C.2         1 FG5      -0.0189
     17 CAO         5.4128  -12.9147   37.9188 C.3         1 FG5       0.0846
     18 NAQ         6.6628  -13.4912   37.5480 N.am        1 FG5      -0.2288
     19 OAR         3.2471  -10.8665   31.2289 O.3         1 FG5      -0.3308
     20 OAS         9.7673  -12.4011   36.9936 O.3         1 FG5      -0.2287
     21 CAU         3.1489  -11.2699   32.5394 C.ar        1 FG5       0.0691
     22 CAV         4.6423  -12.5363   36.7131 C.2         1 FG5       0.0618
     23 CAW         9.4899  -13.4098   37.8608 C.2         1 FG5       0.2522
     24 CAX        11.6224  -13.6406   37.2477 C.ar        1 FG5      -0.0094
     25 CAY         4.2669  -11.8038   34.6256 C.ar        1 FG5      -0.0477
     26 CAZ        11.0646  -12.5328   36.6108 C.ar        1 FG5       0.1269
     27 CBA         3.0611  -12.2039   35.2098 C.ar        1 FG5       0.0540
     28 SBC         7.9515  -13.6375   38.6212 S.o2        1 FG5       0.1039
     29 OXT         2.6242  -15.1151   38.7561 O.co2       1 FG5      -0.5663
     30 H1          2.3870  -12.6115   38.3571 H           1 FG5       0.0766
     31 H2          1.2939  -12.8358   37.0327 H           1 FG5       0.0766
     32 H3          2.8100   -9.3408   29.9152 H           1 FG5       0.0573
     33 H4          2.7349   -8.8626   31.6111 H           1 FG5       0.0573
     34 H5          1.4340   -9.8598   30.8945 H           1 FG5       0.0573
     35 H6         14.7195  -13.4661   35.9778 H           1 FG5       0.0527
     36 H7         13.7490  -11.5406   34.8596 H           1 FG5       0.0542
     37 H8          1.0669  -11.6772   32.5499 H           1 FG5       0.0453
     38 H9         13.3620  -14.8291   37.4811 H           1 FG5       0.0546
     39 H10        11.4122  -10.9456   35.2481 H           1 FG5       0.0562
     40 H11         0.9835  -12.4321   34.8446 H           1 FG5       0.0517
     41 H12         5.2355  -11.0653   32.9001 H           1 FG5       0.0403
     42 H13         6.2517  -11.8160   35.4470 H           1 FG5       0.0155
     43 H14        10.7139  -15.0266   38.6272 H           1 FG5       0.0361
     44 H15         5.5661  -12.0222   38.5211 H           1 FG5       0.0685
     45 H16         4.8903  -13.6451   38.5281 H           1 FG5       0.0685
     46 H17         6.6840  -14.0386   36.7489 H           1 FG5       0.1706
@<TRIPOS>BOND
     1     1     3  ar
     2     4     1   1
     3     1    29  ar
     4     2     4   1
     5    22     2   1
     6     2    27   1
     7    19     5   1
     8    28     6   2
     9    28     7   2
    10     9     8  ar
    11    11     8  ar
    12    12     9  ar
    13    13    10  ar
    14    21    10  ar
    15    24    11  ar
    16    26    12  ar
    17    27    13  ar
    18    14    21  ar
    19    25    14  ar
    20    22    15   2
    21    15    25   1
    22    23    16   2
    23    16    24   1
    24    18    17   1
    25    17    22   1
    26    28    18  am
    27    21    19   1
    28    23    20   1
    29    20    26   1
    30    23    28   1
    31    24    26  ar
    32    25    27  ar
    33     4    30   1
    34     4    31   1
    35     5    32   1
    36     5    33   1
    37     5    34   1
    38     8    35   1
    39     9    36   1
    40    10    37   1
    41    11    38   1
    42    12    39   1
    43    13    40   1
    44    14    41   1
    45    15    42   1
    46    16    43   1
    47    17    44   1
    48    17    45   1
    49    18    46   1
@<TRIPOS>SUBSTRUCTURE
     1  FG5      1

