@<TRIPOS>MOLECULE
3ivg_ligand_076
    46    49
SMALL
GAST_HUCK
****
This file was generated by PARSER (from files_GN.cpp)

@<TRIPOS>ATOM
      1 C           1.5283  -14.5991   36.9854 C.2         1 FG5       0.0635
      2 N           3.2055  -13.9756   35.3413 N.pl3       1 FG5      -0.2501
      3 O           0.7841  -13.4714   37.0344 O.co2       1 FG5      -0.5663
      4 CA          2.2694  -14.9896   35.7700 C.3         1 FG5       0.1031
      5 CAA         1.9194   -9.0148   31.5794 C.3         1 FG5       0.0567
      6 OAC         7.0017  -14.3533   39.4638 O.2         1 FG5      -0.1460
      7 OAD         5.4172  -16.2396   38.9026 O.2         1 FG5      -0.1460
      8 CAF         1.1657  -10.5045   39.3860 C.ar        1 FG5      -0.0767
      9 CAG         0.5290  -11.6042   40.0015 C.ar        1 FG5      -0.0734
     10 CAH         1.4647  -11.0165   33.8213 C.ar        1 FG5      -0.0489
     11 CAI         2.4757  -10.6346   38.8741 C.ar        1 FG5      -0.0712
     12 CAJ         1.1860  -12.8500   40.0945 C.ar        1 FG5      -0.0310
     13 CAK         1.5581  -12.2710   34.4492 C.ar        1 FG5      -0.0524
     14 CAL         3.8984  -10.8323   33.7675 C.ar        1 FG5      -0.0541
     15 CAM         5.0604  -12.8376   34.8049 C.2         1 FG5      -0.0688
     16 CAN         4.3715  -12.3188   38.5689 C.2         1 FG5      -0.0189
     17 CAO         5.4983  -15.0789   35.8522 C.3         1 FG5       0.0846
     18 NAQ         6.2920  -14.6258   36.9439 N.am        1 FG5      -0.2288
     19 OAR         2.5739   -9.0606   32.8597 O.3         1 FG5      -0.3308
     20 OAS         3.3019  -14.0505   39.5278 O.3         1 FG5      -0.2287
     21 CAU         2.6273  -10.2987   33.4551 C.ar        1 FG5       0.0691
     22 CAV         4.5706  -14.0212   35.3718 C.2         1 FG5       0.0618
     23 CAW         4.4489  -13.6656   38.9154 C.2         1 FG5       0.2522
     24 CAX         3.1231  -11.8773   38.9782 C.ar        1 FG5      -0.0094
     25 CAY         3.9703  -12.0786   34.4162 C.ar        1 FG5      -0.0477
     26 CAZ         2.4864  -12.9702   39.5734 C.ar        1 FG5       0.1269
     27 CBA         2.8278  -12.8040   34.7610 C.ar        1 FG5       0.0540
     28 SBC         5.7636  -14.7300   38.5446 S.o2        1 FG5       0.1039
     29 OXT         1.5461  -15.3808   38.0915 O.co2       1 FG5      -0.5663
     30 H1          1.5566  -15.1842   34.9663 H           1 FG5       0.0766
     31 H2          2.7676  -15.9362   35.9571 H           1 FG5       0.0766
     32 H3          2.0657   -8.0166   31.1676 H           1 FG5       0.0573
     33 H4          0.8448   -9.1863   31.6807 H           1 FG5       0.0573
     34 H5          2.3440   -9.7435   30.8836 H           1 FG5       0.0573
     35 H6          0.6809   -9.6085   39.3255 H           1 FG5       0.0527
     36 H7         -0.4093  -11.4984   40.3915 H           1 FG5       0.0542
     37 H8          0.5388  -10.6262   33.6216 H           1 FG5       0.0453
     38 H9          2.9387   -9.8327   38.4449 H           1 FG5       0.0546
     39 H10         0.7257  -13.6521   40.5244 H           1 FG5       0.0562
     40 H11         0.7052  -12.7881   34.6669 H           1 FG5       0.0517
     41 H12         4.7523  -10.3280   33.5261 H           1 FG5       0.0403
     42 H13         6.0427  -12.5864   34.6720 H           1 FG5       0.0155
     43 H14         5.0917  -11.7678   38.0946 H           1 FG5       0.0361
     44 H15         4.9726  -15.9887   36.1304 H           1 FG5       0.0685
     45 H16         6.1763  -15.3376   35.0346 H           1 FG5       0.0685
     46 H17         7.0341  -14.0310   36.7554 H           1 FG5       0.1706
@<TRIPOS>BOND
     1     1     3  ar
     2     4     1   1
     3     1    29  ar
     4     2     4   1
     5    22     2   1
     6     2    27   1
     7    19     5   1
     8    28     6   2
     9    28     7   2
    10     9     8  ar
    11    11     8  ar
    12    12     9  ar
    13    13    10  ar
    14    21    10  ar
    15    24    11  ar
    16    26    12  ar
    17    27    13  ar
    18    14    21  ar
    19    25    14  ar
    20    22    15   2
    21    15    25   1
    22    23    16   2
    23    16    24   1
    24    18    17   1
    25    17    22   1
    26    28    18  am
    27    21    19   1
    28    23    20   1
    29    20    26   1
    30    23    28   1
    31    24    26  ar
    32    25    27  ar
    33     4    30   1
    34     4    31   1
    35     5    32   1
    36     5    33   1
    37     5    34   1
    38     8    35   1
    39     9    36   1
    40    10    37   1
    41    11    38   1
    42    12    39   1
    43    13    40   1
    44    14    41   1
    45    15    42   1
    46    16    43   1
    47    17    44   1
    48    17    45   1
    49    18    46   1
@<TRIPOS>SUBSTRUCTURE
     1  FG5      1

