@<TRIPOS>MOLECULE
3ivg_ligand_057
    46    49
SMALL
GAST_HUCK
****
This file was generated by PARSER (from files_GN.cpp)

@<TRIPOS>ATOM
      1 C          11.7354  -14.6853   37.7255 C.2         1 FG5       0.0635
      2 N           9.7432  -13.2249   37.6106 N.pl3       1 FG5      -0.2501
      3 O          11.7467  -15.1417   38.9940 O.co2       1 FG5      -0.5663
      4 CA         11.1742  -13.3430   37.4159 C.3         1 FG5       0.1031
      5 CAA         6.4696  -15.5442   42.5257 C.3         1 FG5       0.0567
      6 OAC         7.7187  -14.6180   33.8381 O.2         1 FG5      -0.1460
      7 OAD         6.5713  -12.8896   32.3859 O.2         1 FG5      -0.1460
      8 CAF         1.4817  -13.3419   37.0802 C.ar        1 FG5      -0.0767
      9 CAG         2.1283  -14.3862   37.7793 C.ar        1 FG5      -0.0734
     10 CAH         8.6735  -14.1128   41.0982 C.ar        1 FG5      -0.0489
     11 CAI         2.1398  -12.6737   36.0260 C.ar        1 FG5      -0.0712
     12 CAJ         3.4337  -14.7864   37.4216 C.ar        1 FG5      -0.0310
     13 CAK         9.5825  -13.8662   40.0523 C.ar        1 FG5      -0.0524
     14 CAL         6.8068  -13.5292   39.6422 C.ar        1 FG5      -0.0541
     15 CAM         7.5661  -12.7736   37.3386 C.2         1 FG5      -0.0688
     16 CAN         4.3322  -12.6304   34.7213 C.2         1 FG5      -0.0189
     17 CAO         9.0729  -12.2821   35.3301 C.3         1 FG5       0.0846
     18 NAQ         7.9220  -12.0287   34.5237 N.am        1 FG5      -0.2288
     19 OAR         6.3781  -14.2477   41.8977 O.3         1 FG5      -0.3308
     20 OAS         5.3007  -14.3323   35.8255 O.3         1 FG5      -0.2287
     21 CAU         7.2756  -14.0012   40.8904 C.ar        1 FG5       0.0691
     22 CAV         8.8176  -12.7665   36.7160 C.2         1 FG5       0.0618
     23 CAW         5.4685  -13.4307   34.8236 C.2         1 FG5       0.2522
     24 CAX         3.4399  -13.0826   35.6815 C.ar        1 FG5      -0.0094
     25 CAY         7.7347  -13.2740   38.6142 C.ar        1 FG5      -0.0477
     26 CAZ         4.0722  -14.1281   36.3570 C.ar        1 FG5       0.1269
     27 CBA         9.1031  -13.4891   38.7804 C.ar        1 FG5       0.0540
     28 SBC         6.9254  -13.2387   33.8992 S.o2        1 FG5       0.1039
     29 OXT        12.6827  -15.2225   36.9225 O.co2       1 FG5      -0.5663
     30 H1         11.4556  -13.0737   36.3962 H           1 FG5       0.0766
     31 H2         11.6658  -12.6137   38.0572 H           1 FG5       0.0766
     32 H3          5.6417  -15.6446   43.2264 H           1 FG5       0.0573
     33 H4          7.3970  -15.6345   43.0920 H           1 FG5       0.0573
     34 H5          6.4090  -16.3597   41.8008 H           1 FG5       0.0573
     35 H6          0.5320  -13.0674   37.3413 H           1 FG5       0.0527
     36 H7          1.6456  -14.8548   38.5483 H           1 FG5       0.0542
     37 H8          9.0457  -14.3586   42.0168 H           1 FG5       0.0453
     38 H9          1.6796  -11.9134   35.5221 H           1 FG5       0.0546
     39 H10         3.9083  -15.5376   37.9249 H           1 FG5       0.0562
     40 H11        10.5842  -13.9189   40.2403 H           1 FG5       0.0517
     41 H12         5.8092  -13.3857   39.4869 H           1 FG5       0.0403
     42 H13         6.6900  -12.4227   36.9548 H           1 FG5       0.0155
     43 H14         4.1838  -11.8575   34.0680 H           1 FG5       0.0361
     44 H15         9.6207  -11.3413   35.4085 H           1 FG5       0.0685
     45 H16         9.7184  -12.9946   34.8102 H           1 FG5       0.0685
     46 H17         7.5911  -11.1182   34.4882 H           1 FG5       0.1706
@<TRIPOS>BOND
     1     1     3  ar
     2     4     1   1
     3     1    29  ar
     4     2     4   1
     5    22     2   1
     6     2    27   1
     7    19     5   1
     8    28     6   2
     9    28     7   2
    10     9     8  ar
    11    11     8  ar
    12    12     9  ar
    13    13    10  ar
    14    21    10  ar
    15    24    11  ar
    16    26    12  ar
    17    27    13  ar
    18    14    21  ar
    19    25    14  ar
    20    22    15   2
    21    15    25   1
    22    23    16   2
    23    16    24   1
    24    18    17   1
    25    17    22   1
    26    28    18  am
    27    21    19   1
    28    23    20   1
    29    20    26   1
    30    23    28   1
    31    24    26  ar
    32    25    27  ar
    33     4    30   1
    34     4    31   1
    35     5    32   1
    36     5    33   1
    37     5    34   1
    38     8    35   1
    39     9    36   1
    40    10    37   1
    41    11    38   1
    42    12    39   1
    43    13    40   1
    44    14    41   1
    45    15    42   1
    46    16    43   1
    47    17    44   1
    48    17    45   1
    49    18    46   1
@<TRIPOS>SUBSTRUCTURE
     1  FG5      1

