@<TRIPOS>MOLECULE
3ivg_ligand_078
    46    49
SMALL
GAST_HUCK
****
This file was generated by PARSER (from files_GN.cpp)

@<TRIPOS>ATOM
      1 C           4.7466  -14.8844   35.2159 C.2         1 FG5       0.0635
      2 N           6.6937  -14.5350   36.5822 N.pl3       1 FG5      -0.2501
      3 O           4.7571  -13.5891   34.8404 O.co2       1 FG5      -0.5663
      4 CA          5.9714  -15.4829   35.7704 C.3         1 FG5       0.1031
      5 CAA        10.8194   -9.8519   35.6840 C.3         1 FG5       0.0567
      6 OAC         2.2113  -15.1666   38.4467 O.2         1 FG5      -0.1460
      7 OAD         3.0129  -13.3059   36.8209 O.2         1 FG5      -0.1460
      8 CAF        -0.7579   -9.4759   41.1446 C.ar        1 FG5      -0.0767
      9 CAG        -1.4652   -9.5709   39.9228 C.ar        1 FG5      -0.0734
     10 CAH         9.5006  -12.8170   34.7770 C.ar        1 FG5      -0.0489
     11 CAI         0.3909  -10.2630   41.3687 C.ar        1 FG5      -0.0712
     12 CAJ        -1.0330  -10.4558   38.9149 C.ar        1 FG5      -0.0310
     13 CAK         8.3891  -13.6746   34.9134 C.ar        1 FG5      -0.0524
     14 CAL         9.2912  -12.1378   37.1115 C.ar        1 FG5      -0.0541
     15 CAM         7.3679  -13.2680   38.3076 C.2         1 FG5      -0.0688
     16 CAN         1.8860  -12.0142   40.2721 C.2         1 FG5      -0.0189
     17 CAO         5.4079  -14.7681   38.7977 C.3         1 FG5       0.0846
     18 NAQ         4.4195  -13.7881   39.1017 N.am        1 FG5      -0.2288
     19 OAR        11.0687  -11.2668   35.7066 O.3         1 FG5      -0.3308
     20 OAS         0.7320  -12.1301   38.3455 O.3         1 FG5      -0.2287
     21 CAU         9.9506  -12.0369   35.8692 C.ar        1 FG5       0.0691
     22 CAV         6.4401  -14.2208   37.8872 C.2         1 FG5       0.0618
     23 CAW         1.8058  -12.6088   39.0206 C.2         1 FG5       0.2522
     24 CAX         0.8124  -11.1377   40.3536 C.ar        1 FG5      -0.0094
     25 CAY         8.1852  -12.9958   37.2307 C.ar        1 FG5      -0.0477
     26 CAZ         0.1149  -11.2322   39.1500 C.ar        1 FG5       0.1269
     27 CBA         7.7417  -13.7791   36.1621 C.ar        1 FG5       0.0540
     28 SBC         2.9141  -13.7461   38.3384 S.o2        1 FG5       0.1039
     29 OXT         3.8118  -15.6844   34.6549 O.co2       1 FG5      -0.5663
     30 H1          6.5697  -15.8338   34.9290 H           1 FG5       0.0766
     31 H2          5.7337  -16.3770   36.3536 H           1 FG5       0.0766
     32 H3         11.7605   -9.3499   35.4622 H           1 FG5       0.0573
     33 H4         10.4675   -9.4969   36.6546 H           1 FG5       0.0573
     34 H5         10.0974   -9.5794   34.9108 H           1 FG5       0.0573
     35 H6         -1.0806   -8.8318   41.8679 H           1 FG5       0.0527
     36 H7         -2.2919   -8.9917   39.7687 H           1 FG5       0.0542
     37 H8         10.0027  -12.7880   33.8863 H           1 FG5       0.0453
     38 H9          0.9088  -10.1958   42.2472 H           1 FG5       0.0546
     39 H10        -1.5368  -10.5294   38.0266 H           1 FG5       0.0562
     40 H11         8.0853  -14.2286   34.1100 H           1 FG5       0.0517
     41 H12         9.6189  -11.6012   37.9155 H           1 FG5       0.0403
     42 H13         7.4418  -12.8582   39.2405 H           1 FG5       0.0155
     43 H14         2.5961  -12.1788   40.9841 H           1 FG5       0.0361
     44 H15         4.9489  -15.6670   38.3867 H           1 FG5       0.0685
     45 H16         5.8885  -15.0595   39.7340 H           1 FG5       0.0685
     46 H17         4.6664  -13.0541   39.6820 H           1 FG5       0.1706
@<TRIPOS>BOND
     1     1     3  ar
     2     4     1   1
     3     1    29  ar
     4     2     4   1
     5    22     2   1
     6     2    27   1
     7    19     5   1
     8    28     6   2
     9    28     7   2
    10     9     8  ar
    11    11     8  ar
    12    12     9  ar
    13    13    10  ar
    14    21    10  ar
    15    24    11  ar
    16    26    12  ar
    17    27    13  ar
    18    14    21  ar
    19    25    14  ar
    20    22    15   2
    21    15    25   1
    22    23    16   2
    23    16    24   1
    24    18    17   1
    25    17    22   1
    26    28    18  am
    27    21    19   1
    28    23    20   1
    29    20    26   1
    30    23    28   1
    31    24    26  ar
    32    25    27  ar
    33     4    30   1
    34     4    31   1
    35     5    32   1
    36     5    33   1
    37     5    34   1
    38     8    35   1
    39     9    36   1
    40    10    37   1
    41    11    38   1
    42    12    39   1
    43    13    40   1
    44    14    41   1
    45    15    42   1
    46    16    43   1
    47    17    44   1
    48    17    45   1
    49    18    46   1
@<TRIPOS>SUBSTRUCTURE
     1  FG5      1

