@<TRIPOS>MOLECULE
3jvs_ligand_010
    52    54
SMALL
GAST_HUCK
****
This file was generated by PARSER (from files_GN.cpp)

@<TRIPOS>ATOM
      1 C1         20.5562  -10.3838   26.3324 C.ar        1 AGY       0.0113
      2 N1         20.8592   -8.4317   24.9171 N.am        1 AGY      -0.2122
      3 O1         19.2253   -7.2588   23.9309 O.2         1 AGY      -0.3871
      4 C2         20.2499   -9.6449   25.1510 C.ar        1 AGY       0.0814
      5 N2         21.1334   -6.2748   24.0951 N.am        1 AGY      -0.1624
      6 O2         23.1066   -5.5621   22.4616 O.2         1 AGY      -0.3706
      7 C3         19.9676  -11.6738   26.5347 C.ar        1 AGY      -0.0315
      8 N3         22.3829   -6.1311   24.4657 N.am        1 AGY      -0.1773
      9 O3         27.4293   -2.5117   26.2348 O.2         1 AGY       0.1875
     10 C4         21.4250   -9.8864   27.3428 C.ar        1 AGY      -0.0551
     11 N4         26.7823   -2.6752   25.1143 N.2         1 AGY       0.3329
     12 O4         26.1587   -1.7020   24.7749 O.2         1 AGY       0.1875
     13 C5         19.3935  -10.2322   24.1846 C.ar        1 AGY      -0.0435
     14 C6         19.1011  -12.2147   25.5610 C.ar        1 AGY      -0.0747
     15 C7         20.2580  -12.4175   27.7014 C.ar        1 AGY      -0.0608
     16 C8         21.7186  -10.6416   28.4919 C.ar        1 AGY      -0.0647
     17 C9         18.8159  -11.4953   24.3914 C.ar        1 AGY      -0.0816
     18 C10        20.3827   -7.3411   24.3223 C.2         1 AGY       0.3134
     19 C11        21.1354  -11.9063   28.6727 C.ar        1 AGY      -0.0656
     20 C12        23.3484   -5.7124   23.6589 C.2         1 AGY       0.2462
     21 C13        24.6561   -5.5027   24.1067 C.ar        1 AGY       0.0865
     22 C14        25.1901   -4.1962   24.2085 C.ar        1 AGY       0.0278
     23 C15        25.4799   -6.5659   24.5301 C.ar        1 AGY      -0.0096
     24 C16        26.5027   -3.9412   24.6899 C.ar        1 AGY       0.2244
     25 C17        26.8170   -6.3357   24.8871 C.ar        1 AGY      -0.0290
     26 C18        27.4095   -5.0435   24.8355 C.ar        1 AGY      -0.0051
     27 C19        28.9397   -4.9471   24.8491 C.3         1 AGY      -0.0402
     28 C20        29.5756   -6.0384   23.9060 C.3         1 AGY      -0.0830
     29 C21        29.5389   -3.5983   24.2999 C.3         1 AGY      -0.0830
     30 C22        29.4482   -5.1891   26.3036 C.3         1 AGY      -0.0830
     31 H1         21.7657   -8.3554   25.2459 H           1 AGY       0.2311
     32 H2         20.7312   -5.5489   23.5873 H           1 AGY       0.2168
     33 H3         22.6030   -6.2987   25.3956 H           1 AGY       0.2163
     34 H4         21.8638   -8.9674   27.2584 H           1 AGY       0.0629
     35 H5         19.2021   -9.7617   23.2977 H           1 AGY       0.0440
     36 H6         18.6787  -13.1389   25.6855 H           1 AGY       0.0439
     37 H7         19.8355  -13.3379   27.8539 H           1 AGY       0.0587
     38 H8         22.3586  -10.2732   29.1998 H           1 AGY       0.0578
     39 H9         18.2047  -11.9037   23.6803 H           1 AGY       0.0564
     40 H10        21.3457  -12.4528   29.5112 H           1 AGY       0.0611
     41 H11        24.5622   -3.4099   24.0271 H           1 AGY       0.0821
     42 H12        25.1401   -7.5308   24.5208 H           1 AGY       0.0777
     43 H13        27.3749   -7.1555   25.1325 H           1 AGY       0.0872
     44 H14        30.6624   -5.9455   23.8511 H           1 AGY       0.0139
     45 H15        29.1779   -5.9449   22.8915 H           1 AGY       0.0139
     46 H16        29.3934   -7.0550   24.2479 H           1 AGY       0.0139
     47 H17        29.4556   -2.7788   25.0048 H           1 AGY       0.0139
     48 H18        29.0414   -3.3077   23.3728 H           1 AGY       0.0139
     49 H19        30.6059   -3.6756   24.0848 H           1 AGY       0.0139
     50 H20        29.1754   -6.1854   26.6599 H           1 AGY       0.0139
     51 H21        29.0125   -4.4593   26.9847 H           1 AGY       0.0139
     52 H22        30.5349   -5.0995   26.3555 H           1 AGY       0.0139
@<TRIPOS>BOND
     1     4     1  ar
     2     1     7  ar
     3     1    10  ar
     4     2     4   1
     5    18     2  am
     6    18     3   2
     7     4    13  ar
     8     8     5   1
     9     5    18  am
    10    20     6   2
    11     7    14  ar
    12     7    15  ar
    13    20     8  am
    14    11     9   2
    15    10    16  ar
    16    11    12   2
    17    24    11   1
    18    13    17  ar
    19    17    14  ar
    20    15    19  ar
    21    16    19  ar
    22    21    20   1
    23    22    21  ar
    24    21    23  ar
    25    22    24  ar
    26    23    25  ar
    27    24    26  ar
    28    25    26  ar
    29    26    27   1
    30    27    28   1
    31    27    29   1
    32    27    30   1
    33     2    31   1
    34     5    32   1
    35     8    33   1
    36    10    34   1
    37    13    35   1
    38    14    36   1
    39    15    37   1
    40    16    38   1
    41    17    39   1
    42    19    40   1
    43    22    41   1
    44    23    42   1
    45    25    43   1
    46    28    44   1
    47    28    45   1
    48    28    46   1
    49    29    47   1
    50    29    48   1
    51    29    49   1
    52    30    50   1
    53    30    51   1
    54    30    52   1
@<TRIPOS>SUBSTRUCTURE
     1  AGY      1

