@<TRIPOS>MOLECULE
3jvs_ligand_003
    52    54
SMALL
GAST_HUCK
****
This file was generated by PARSER (from files_GN.cpp)

@<TRIPOS>ATOM
      1 C1         32.0994   -0.8338   16.7774 C.ar        1 AGY       0.0113
      2 N1         31.5978   -2.9965   17.7652 N.am        1 AGY      -0.2122
      3 O1         32.7342   -4.8228   17.1642 O.2         1 AGY      -0.3871
      4 C2         31.7472   -2.2084   16.6483 C.ar        1 AGY       0.0814
      5 N2         31.7647   -4.8964   19.0914 N.am        1 AGY      -0.1624
      6 O2         30.2958   -6.4609   20.6773 O.2         1 AGY      -0.3706
      7 C3         32.1620   -0.0037   15.6155 C.ar        1 AGY      -0.0315
      8 N3         30.9787   -4.4583   20.0430 N.am        1 AGY      -0.1773
      9 O3         28.1681   -4.1274   26.1548 O.2         1 AGY       0.1875
     10 C4         32.4229   -0.2542   18.0275 C.ar        1 AGY      -0.0551
     11 N4         28.3597   -5.0416   25.2450 N.2         1 AGY       0.3329
     12 O4         29.0384   -5.9599   25.6250 O.2         1 AGY       0.1875
     13 C5         31.4577   -2.7154   15.3612 C.ar        1 AGY      -0.0435
     14 C6         31.8666   -0.5440   14.3480 C.ar        1 AGY      -0.0747
     15 C7         32.5202    1.3583   15.7339 C.ar        1 AGY      -0.0608
     16 C8         32.7665    1.1029   18.1383 C.ar        1 AGY      -0.0647
     17 C9         31.5193   -1.8970   14.2233 C.ar        1 AGY      -0.0816
     18 C10        32.0310   -4.2366   17.9737 C.2         1 AGY       0.3134
     19 C11        32.8103    1.9101   16.9903 C.ar        1 AGY      -0.0656
     20 C12        30.2204   -5.2420   20.8016 C.2         1 AGY       0.2462
     21 C13        29.2867   -4.7081   21.6953 C.ar        1 AGY       0.0865
     22 C14        29.1229   -5.2473   22.9936 C.ar        1 AGY       0.0278
     23 C15        28.4780   -3.6053   21.3509 C.ar        1 AGY      -0.0096
     24 C16        28.1783   -4.7304   23.9227 C.ar        1 AGY       0.2244
     25 C17        27.4555   -3.1711   22.2073 C.ar        1 AGY      -0.0290
     26 C18        27.1756   -3.8141   23.4520 C.ar        1 AGY      -0.0051
     27 C19        25.8047   -3.5719   24.1064 C.3         1 AGY      -0.0402
     28 C20        25.8321   -2.2227   24.8901 C.3         1 AGY      -0.0830
     29 C21        24.6631   -3.4873   23.0102 C.3         1 AGY      -0.0830
     30 C22        25.3162   -4.7239   25.0703 C.3         1 AGY      -0.0830
     31 H1         31.1838   -2.5667   18.5313 H           1 AGY       0.2311
     32 H2         32.1340   -5.7900   19.1855 H           1 AGY       0.2168
     33 H3         30.9461   -3.5033   20.2056 H           1 AGY       0.2163
     34 H4         32.4389   -0.8232   18.8732 H           1 AGY       0.0629
     35 H5         31.1555   -3.6838   15.2451 H           1 AGY       0.0440
     36 H6         31.8972    0.0430   13.5068 H           1 AGY       0.0439
     37 H7         32.5720    1.9579   14.9040 H           1 AGY       0.0587
     38 H8         32.9880    1.4958   19.0549 H           1 AGY       0.0578
     39 H9         31.2983   -2.2859   13.3043 H           1 AGY       0.0564
     40 H10        33.0630    2.8956   17.0689 H           1 AGY       0.0611
     41 H11        29.7840   -5.9710   23.2970 H           1 AGY       0.0821
     42 H12        28.5808   -3.1457   20.4397 H           1 AGY       0.0777
     43 H13        26.8760   -2.3990   21.8751 H           1 AGY       0.0872
     44 H14        24.8661   -2.0374   25.3659 H           1 AGY       0.0139
     45 H15        26.0445   -1.3847   24.2190 H           1 AGY       0.0139
     46 H16        26.6006   -2.2387   25.6706 H           1 AGY       0.0139
     47 H17        24.6878   -4.3708   22.3699 H           1 AGY       0.0139
     48 H18        24.7576   -2.6082   22.3703 H           1 AGY       0.0139
     49 H19        23.6673   -3.4179   23.4569 H           1 AGY       0.0139
     50 H20        25.7964   -4.7008   26.0459 H           1 AGY       0.0139
     51 H21        25.4953   -5.7005   24.6103 H           1 AGY       0.0139
     52 H22        24.2456   -4.6488   25.2891 H           1 AGY       0.0139
@<TRIPOS>BOND
     1     4     1  ar
     2     1     7  ar
     3     1    10  ar
     4     2     4   1
     5    18     2  am
     6    18     3   2
     7     4    13  ar
     8     8     5   1
     9     5    18  am
    10    20     6   2
    11     7    14  ar
    12     7    15  ar
    13    20     8  am
    14    11     9   2
    15    10    16  ar
    16    11    12   2
    17    24    11   1
    18    13    17  ar
    19    17    14  ar
    20    15    19  ar
    21    16    19  ar
    22    21    20   1
    23    22    21  ar
    24    21    23  ar
    25    22    24  ar
    26    23    25  ar
    27    24    26  ar
    28    25    26  ar
    29    26    27   1
    30    27    28   1
    31    27    29   1
    32    27    30   1
    33     2    31   1
    34     5    32   1
    35     8    33   1
    36    10    34   1
    37    13    35   1
    38    14    36   1
    39    15    37   1
    40    16    38   1
    41    17    39   1
    42    19    40   1
    43    22    41   1
    44    23    42   1
    45    25    43   1
    46    28    44   1
    47    28    45   1
    48    28    46   1
    49    29    47   1
    50    29    48   1
    51    29    49   1
    52    30    50   1
    53    30    51   1
    54    30    52   1
@<TRIPOS>SUBSTRUCTURE
     1  AGY      1

