@<TRIPOS>MOLECULE
3jvs_ligand_008
    52    54
SMALL
GAST_HUCK
****
This file was generated by PARSER (from files_GN.cpp)

@<TRIPOS>ATOM
      1 C1         20.4761  -11.3708   25.6883 C.ar        1 AGY       0.0113
      2 N1         20.3283   -8.9343   25.7736 N.am        1 AGY      -0.2122
      3 O1         18.9155   -8.9252   24.0384 O.2         1 AGY      -0.3871
      4 C2         20.0015  -10.1575   26.2646 C.ar        1 AGY       0.0814
      5 N2         20.4165   -7.3870   24.0488 N.am        1 AGY      -0.1624
      6 O2         22.7762   -7.5149   22.8305 O.2         1 AGY      -0.3706
      7 C3         20.0643  -12.6183   26.2493 C.ar        1 AGY      -0.0315
      8 N3         21.4785   -6.7562   24.4681 N.am        1 AGY      -0.1773
      9 O3         25.6046   -1.7870   24.0907 O.2         1 AGY       0.1875
     10 C4         21.3694  -11.3862   24.5861 C.ar        1 AGY      -0.0551
     11 N4         25.3297   -2.8278   23.3405 N.2         1 AGY       0.3329
     12 O4         24.8136   -2.5411   22.2857 O.2         1 AGY       0.1875
     13 C5         19.1721  -10.2037   27.4040 C.ar        1 AGY      -0.0435
     14 C6         19.2174  -12.6378   27.3777 C.ar        1 AGY      -0.0747
     15 C7         20.5099  -13.8300   25.6763 C.ar        1 AGY      -0.0608
     16 C8         21.8047  -12.5964   24.0252 C.ar        1 AGY      -0.0647
     17 C9         18.7804  -11.4356   27.9589 C.ar        1 AGY      -0.0816
     18 C10        19.8476   -8.4110   24.6465 C.2         1 AGY       0.3134
     19 C11        21.3679  -13.8168   24.5626 C.ar        1 AGY      -0.0656
     20 C12        22.6340   -6.7529   23.7934 C.2         1 AGY       0.2462
     21 C13        23.7264   -6.0204   24.2168 C.ar        1 AGY       0.0865
     22 C14        24.1515   -4.8813   23.4941 C.ar        1 AGY       0.0278
     23 C15        24.4365   -6.3366   25.3947 C.ar        1 AGY      -0.0096
     24 C16        25.2368   -4.0629   23.9194 C.ar        1 AGY       0.2244
     25 C17        25.5846   -5.6259   25.7518 C.ar        1 AGY      -0.0290
     26 C18        26.0882   -4.5293   24.9870 C.ar        1 AGY      -0.0051
     27 C19        27.4977   -4.0061   25.3166 C.3         1 AGY      -0.0402
     28 C20        28.2615   -3.4641   24.0521 C.3         1 AGY      -0.0830
     29 C21        27.3959   -2.8992   26.4194 C.3         1 AGY      -0.0830
     30 C22        28.4648   -5.1333   25.8654 C.3         1 AGY      -0.0830
     31 H1         20.9826   -8.4152   26.2681 H           1 AGY       0.2311
     32 H2         20.0756   -7.1435   23.1730 H           1 AGY       0.2168
     33 H3         21.4308   -6.2489   25.3039 H           1 AGY       0.2163
     34 H4         21.7221  -10.5151   24.1792 H           1 AGY       0.0629
     35 H5         18.8265   -9.3430   27.8285 H           1 AGY       0.0440
     36 H6         18.9150  -13.5227   27.7908 H           1 AGY       0.0439
     37 H7         20.2170  -14.7291   26.0632 H           1 AGY       0.0587
     38 H8         22.4489  -12.5947   23.2282 H           1 AGY       0.0578
     39 H9         18.1661  -11.4554   28.7766 H           1 AGY       0.0564
     40 H10        21.6872  -14.7012   24.1542 H           1 AGY       0.0611
     41 H11        23.5676   -4.5809   22.7039 H           1 AGY       0.0821
     42 H12        24.1397   -7.1288   25.9767 H           1 AGY       0.0777
     43 H13        26.0759   -5.9423   26.5897 H           1 AGY       0.0872
     44 H14        29.3270   -3.3010   24.2459 H           1 AGY       0.0139
     45 H15        27.9097   -2.4978   23.7132 H           1 AGY       0.0139
     46 H16        28.1759   -4.1729   23.2184 H           1 AGY       0.0139
     47 H17        26.9031   -3.2972   27.3144 H           1 AGY       0.0139
     48 H18        26.8255   -2.0360   26.0650 H           1 AGY       0.0139
     49 H19        28.3961   -2.5568   26.7078 H           1 AGY       0.0139
     50 H20        28.4412   -6.0104   25.2081 H           1 AGY       0.0139
     51 H21        28.1900   -5.4493   26.8762 H           1 AGY       0.0139
     52 H22        29.5020   -4.7816   25.9364 H           1 AGY       0.0139
@<TRIPOS>BOND
     1     4     1  ar
     2     1     7  ar
     3     1    10  ar
     4     2     4   1
     5    18     2  am
     6    18     3   2
     7     4    13  ar
     8     8     5   1
     9     5    18  am
    10    20     6   2
    11     7    14  ar
    12     7    15  ar
    13    20     8  am
    14    11     9   2
    15    10    16  ar
    16    11    12   2
    17    24    11   1
    18    13    17  ar
    19    17    14  ar
    20    15    19  ar
    21    16    19  ar
    22    21    20   1
    23    22    21  ar
    24    21    23  ar
    25    22    24  ar
    26    23    25  ar
    27    24    26  ar
    28    25    26  ar
    29    26    27   1
    30    27    28   1
    31    27    29   1
    32    27    30   1
    33     2    31   1
    34     5    32   1
    35     8    33   1
    36    10    34   1
    37    13    35   1
    38    14    36   1
    39    15    37   1
    40    16    38   1
    41    17    39   1
    42    19    40   1
    43    22    41   1
    44    23    42   1
    45    25    43   1
    46    28    44   1
    47    28    45   1
    48    28    46   1
    49    29    47   1
    50    29    48   1
    51    29    49   1
    52    30    50   1
    53    30    51   1
    54    30    52   1
@<TRIPOS>SUBSTRUCTURE
     1  AGY      1

