@<TRIPOS>MOLECULE
3jvs_ligand_009
    52    54
SMALL
GAST_HUCK
****
This file was generated by PARSER (from files_GN.cpp)

@<TRIPOS>ATOM
      1 C1         20.9847  -10.4541   26.1024 C.ar        1 AGY       0.0113
      2 N1         21.2242   -8.5713   24.5906 N.am        1 AGY      -0.2122
      3 O1         19.3528   -7.4748   24.0508 O.2         1 AGY      -0.3871
      4 C2         20.6779   -9.7942   24.8785 C.ar        1 AGY       0.0814
      5 N2         21.1915   -6.3491   23.9211 N.am        1 AGY      -0.1624
      6 O2         22.8490   -6.1046   26.0358 O.2         1 AGY      -0.3706
      7 C3         20.3907  -11.7219   26.3850 C.ar        1 AGY      -0.0315
      8 N3         22.4963   -6.1916   23.8508 N.am        1 AGY      -0.1773
      9 O3         27.9159   -5.4166   21.5476 O.2         1 AGY       0.1875
     10 C4         21.8420   -9.8814   27.0785 C.ar        1 AGY      -0.0551
     11 N4         27.3357   -6.3154   22.2955 N.2         1 AGY       0.3329
     12 O4         26.9752   -7.2869   21.6830 O.2         1 AGY       0.1875
     13 C5         19.8267  -10.4258   23.9456 C.ar        1 AGY      -0.0435
     14 C6         19.5314  -12.3191   25.4356 C.ar        1 AGY      -0.0747
     15 C7         20.6478  -12.3688   27.6149 C.ar        1 AGY      -0.0608
     16 C8         22.0937  -10.5362   28.2968 C.ar        1 AGY      -0.0647
     17 C9         19.2592  -11.6756   24.2196 C.ar        1 AGY      -0.0816
     18 C10        20.5668   -7.4823   24.2002 C.2         1 AGY       0.3134
     19 C11        21.4926  -11.7759   28.5670 C.ar        1 AGY      -0.0656
     20 C12        23.3003   -6.0524   24.8960 C.2         1 AGY       0.2462
     21 C13        24.6346   -5.7048   24.7117 C.ar        1 AGY       0.0865
     22 C14        25.4250   -6.2898   23.6985 C.ar        1 AGY       0.0278
     23 C15        25.2173   -4.6925   25.4948 C.ar        1 AGY      -0.0096
     24 C16        26.7778   -5.9071   23.4747 C.ar        1 AGY       0.2244
     25 C17        26.5724   -4.3695   25.3434 C.ar        1 AGY      -0.0290
     26 C18        27.4290   -5.0283   24.4140 C.ar        1 AGY      -0.0051
     27 C19        28.9423   -4.8399   24.6028 C.3         1 AGY      -0.0402
     28 C20        29.3213   -5.2503   26.0734 C.3         1 AGY      -0.0830
     29 C21        29.9116   -5.7022   23.7093 C.3         1 AGY      -0.0830
     30 C22        29.3282   -3.3356   24.3747 C.3         1 AGY      -0.0830
     31 H1         22.1648   -8.4669   24.7753 H           1 AGY       0.2311
     32 H2         20.6593   -5.6436   23.5324 H           1 AGY       0.2168
     33 H3         22.8621   -5.9900   22.9769 H           1 AGY       0.2163
     34 H4         22.2885   -8.9753   26.9255 H           1 AGY       0.0629
     35 H5         19.6274   -9.9801   23.0456 H           1 AGY       0.0440
     36 H6         19.0975  -13.2276   25.6185 H           1 AGY       0.0439
     37 H7         20.2164  -13.2726   27.8279 H           1 AGY       0.0587
     38 H8         22.7089  -10.1091   28.9952 H           1 AGY       0.0578
     39 H9         18.6427  -12.1153   23.5293 H           1 AGY       0.0564
     40 H10        21.6677  -12.2487   29.4571 H           1 AGY       0.0611
     41 H11        24.9783   -6.9682   23.0745 H           1 AGY       0.0821
     42 H12        24.6588   -4.1793   26.1846 H           1 AGY       0.0777
     43 H13        26.9383   -3.6537   25.9708 H           1 AGY       0.0872
     44 H14        30.3981   -5.1671   26.2503 H           1 AGY       0.0139
     45 H15        29.0342   -6.2866   26.2685 H           1 AGY       0.0139
     46 H16        28.8415   -4.6215   26.8200 H           1 AGY       0.0139
     47 H17        29.9993   -5.3045   22.6994 H           1 AGY       0.0139
     48 H18        29.5718   -6.7416   23.6639 H           1 AGY       0.0139
     49 H19        30.9339   -5.7179   24.0924 H           1 AGY       0.0139
     50 H20        28.8579   -2.6737   25.1039 H           1 AGY       0.0139
     51 H21        29.0132   -3.0165   23.3793 H           1 AGY       0.0139
     52 H22        30.4057   -3.1872   24.4604 H           1 AGY       0.0139
@<TRIPOS>BOND
     1     4     1  ar
     2     1     7  ar
     3     1    10  ar
     4     2     4   1
     5    18     2  am
     6    18     3   2
     7     4    13  ar
     8     8     5   1
     9     5    18  am
    10    20     6   2
    11     7    14  ar
    12     7    15  ar
    13    20     8  am
    14    11     9   2
    15    10    16  ar
    16    11    12   2
    17    24    11   1
    18    13    17  ar
    19    17    14  ar
    20    15    19  ar
    21    16    19  ar
    22    21    20   1
    23    22    21  ar
    24    21    23  ar
    25    22    24  ar
    26    23    25  ar
    27    24    26  ar
    28    25    26  ar
    29    26    27   1
    30    27    28   1
    31    27    29   1
    32    27    30   1
    33     2    31   1
    34     5    32   1
    35     8    33   1
    36    10    34   1
    37    13    35   1
    38    14    36   1
    39    15    37   1
    40    16    38   1
    41    17    39   1
    42    19    40   1
    43    22    41   1
    44    23    42   1
    45    25    43   1
    46    28    44   1
    47    28    45   1
    48    28    46   1
    49    29    47   1
    50    29    48   1
    51    29    49   1
    52    30    50   1
    53    30    51   1
    54    30    52   1
@<TRIPOS>SUBSTRUCTURE
     1  AGY      1

