@<TRIPOS>MOLECULE
3jvs_ligand_006
    52    54
SMALL
GAST_HUCK
****
This file was generated by PARSER (from files_GN.cpp)

@<TRIPOS>ATOM
      1 C1         21.8627  -10.2300   28.0648 C.ar        1 AGY       0.0113
      2 N1         21.1232   -8.7078   26.3487 N.am        1 AGY      -0.2122
      3 O1         19.6148   -8.9791   24.6995 O.2         1 AGY      -0.3871
      4 C2         20.8296   -9.7048   27.2382 C.ar        1 AGY       0.0814
      5 N2         21.1796   -7.5637   24.3603 N.am        1 AGY      -0.1624
      6 O2         22.9124   -6.8169   22.5032 O.2         1 AGY      -0.3706
      7 C3         21.5465  -11.2291   29.0461 C.ar        1 AGY      -0.0315
      8 N3         22.2794   -6.9243   24.6233 N.am        1 AGY      -0.1773
      9 O3         28.3084   -5.9048   26.3293 O.2         1 AGY       0.1875
     10 C4         23.2206   -9.8098   27.9623 C.ar        1 AGY      -0.0551
     11 N4         27.0060   -5.9384   26.4563 N.2         1 AGY       0.3329
     12 O4         26.6416   -6.7709   27.2400 O.2         1 AGY       0.1875
     13 C5         19.5136  -10.1930   27.4078 C.ar        1 AGY      -0.0435
     14 C6         20.2262  -11.6853   29.1817 C.ar        1 AGY      -0.0747
     15 C7         22.5587  -11.7392   29.8887 C.ar        1 AGY      -0.0608
     16 C8         24.2159  -10.3228   28.8137 C.ar        1 AGY      -0.0647
     17 C9         19.2085  -11.1727   28.3668 C.ar        1 AGY      -0.0816
     18 C10        20.5806   -8.4066   25.1735 C.2         1 AGY       0.3134
     19 C11        23.8829  -11.2835   29.7778 C.ar        1 AGY      -0.0656
     20 C12        23.1270   -6.5252   23.6822 C.2         1 AGY       0.2462
     21 C13        24.2838   -5.8282   24.0028 C.ar        1 AGY       0.0865
     22 C14        24.9929   -6.0560   25.2036 C.ar        1 AGY       0.0278
     23 C15        24.8134   -4.8986   23.0935 C.ar        1 AGY      -0.0096
     24 C16        26.2114   -5.3784   25.4967 C.ar        1 AGY       0.2244
     25 C17        25.9225   -4.1229   23.4371 C.ar        1 AGY      -0.0290
     26 C18        26.5702   -4.2386   24.6956 C.ar        1 AGY      -0.0051
     27 C19        27.4732   -3.0790   25.1468 C.3         1 AGY      -0.0402
     28 C20        27.5276   -2.8940   26.7093 C.3         1 AGY      -0.0830
     29 C21        28.9014   -3.2753   24.5430 C.3         1 AGY      -0.0830
     30 C22        26.9378   -1.6819   24.6373 C.3         1 AGY      -0.0830
     31 H1         21.9181   -8.2045   26.5625 H           1 AGY       0.2311
     32 H2         20.8274   -7.4837   23.4603 H           1 AGY       0.2168
     33 H3         22.5124   -6.7400   25.5501 H           1 AGY       0.2163
     34 H4         23.5108   -9.1156   27.2667 H           1 AGY       0.0629
     35 H5         18.7444   -9.8286   26.8580 H           1 AGY       0.0440
     36 H6         19.9802  -12.3923   29.8737 H           1 AGY       0.0439
     37 H7         22.3419  -12.4418   30.5957 H           1 AGY       0.0587
     38 H8         25.1811   -9.9950   28.7234 H           1 AGY       0.0578
     39 H9         18.2485  -11.4940   28.4779 H           1 AGY       0.0564
     40 H10        24.6002  -11.6534   30.3957 H           1 AGY       0.0611
     41 H11        24.6622   -6.8030   25.8197 H           1 AGY       0.0821
     42 H12        24.3451   -4.7107   22.2006 H           1 AGY       0.0777
     43 H13        26.1985   -3.4162   22.7613 H           1 AGY       0.0872
     44 H14        28.0011   -1.9510   26.9970 H           1 AGY       0.0139
     45 H15        28.1059   -3.6618   27.2096 H           1 AGY       0.0139
     46 H16        26.5153   -2.9003   27.1268 H           1 AGY       0.0139
     47 H17        28.8544   -3.3259   23.4516 H           1 AGY       0.0139
     48 H18        29.3668   -4.1954   24.8974 H           1 AGY       0.0139
     49 H19        29.5568   -2.4419   24.8137 H           1 AGY       0.0139
     50 H20        25.8801   -1.5685   24.8852 H           1 AGY       0.0139
     51 H21        27.0494   -1.5597   23.5602 H           1 AGY       0.0139
     52 H22        27.4817   -0.8413   25.0789 H           1 AGY       0.0139
@<TRIPOS>BOND
     1     4     1  ar
     2     1     7  ar
     3     1    10  ar
     4     2     4   1
     5    18     2  am
     6    18     3   2
     7     4    13  ar
     8     8     5   1
     9     5    18  am
    10    20     6   2
    11     7    14  ar
    12     7    15  ar
    13    20     8  am
    14    11     9   2
    15    10    16  ar
    16    11    12   2
    17    24    11   1
    18    13    17  ar
    19    17    14  ar
    20    15    19  ar
    21    16    19  ar
    22    21    20   1
    23    22    21  ar
    24    21    23  ar
    25    22    24  ar
    26    23    25  ar
    27    24    26  ar
    28    25    26  ar
    29    26    27   1
    30    27    28   1
    31    27    29   1
    32    27    30   1
    33     2    31   1
    34     5    32   1
    35     8    33   1
    36    10    34   1
    37    13    35   1
    38    14    36   1
    39    15    37   1
    40    16    38   1
    41    17    39   1
    42    19    40   1
    43    22    41   1
    44    23    42   1
    45    25    43   1
    46    28    44   1
    47    28    45   1
    48    28    46   1
    49    29    47   1
    50    29    48   1
    51    29    49   1
    52    30    50   1
    53    30    51   1
    54    30    52   1
@<TRIPOS>SUBSTRUCTURE
     1  AGY      1

