@<TRIPOS>MOLECULE
3jvs_ligand_012
    52    54
SMALL
GAST_HUCK
****
This file was generated by PARSER (from files_GN.cpp)

@<TRIPOS>ATOM
      1 C1         20.7566  -10.4796   28.0283 C.ar        1 AGY       0.0113
      2 N1         20.5640   -9.1465   26.0122 N.am        1 AGY      -0.2122
      3 O1         19.4811   -9.6191   24.1051 O.2         1 AGY      -0.3871
      4 C2         19.9970  -10.0097   26.9169 C.ar        1 AGY       0.0814
      5 N2         20.9913   -8.1059   23.9677 N.am        1 AGY      -0.1624
      6 O2         23.0682   -7.3623   22.4866 O.2         1 AGY      -0.3706
      7 C3         20.1473  -11.3228   29.0100 C.ar        1 AGY      -0.0315
      8 N3         21.9374   -7.3100   24.3889 N.am        1 AGY      -0.1773
      9 O3         25.5039   -1.7089   24.0725 O.2         1 AGY       0.1875
     10 C4         22.1334  -10.1677   28.1942 C.ar        1 AGY      -0.0551
     11 N4         25.3473   -2.7439   23.2908 N.2         1 AGY       0.3329
     12 O4         24.8322   -2.4763   22.2313 O.2         1 AGY       0.1875
     13 C5         18.6340  -10.3958   26.8243 C.ar        1 AGY      -0.0435
     14 C6         18.7900  -11.6885   28.8768 C.ar        1 AGY      -0.0747
     15 C7         20.8906  -11.7952   30.1165 C.ar        1 AGY      -0.0608
     16 C8         22.8660  -10.6438   29.2946 C.ar        1 AGY      -0.0647
     17 C9         18.0380  -11.2333   27.7890 C.ar        1 AGY      -0.0816
     18 C10        20.3098   -8.9578   24.7141 C.2         1 AGY       0.3134
     19 C11        22.2449  -11.4561   30.2605 C.ar        1 AGY      -0.0656
     20 C12        22.9588   -6.9124   23.6268 C.2         1 AGY       0.2462
     21 C13        23.9518   -6.0601   24.0976 C.ar        1 AGY       0.0865
     22 C14        24.3201   -4.8881   23.3845 C.ar        1 AGY       0.0278
     23 C15        24.6318   -6.3021   25.3090 C.ar        1 AGY      -0.0096
     24 C16        25.3267   -3.9926   23.8461 C.ar        1 AGY       0.2244
     25 C17        25.7028   -5.4997   25.7085 C.ar        1 AGY      -0.0290
     26 C18        26.1657   -4.3892   24.9473 C.ar        1 AGY      -0.0051
     27 C19        27.5258   -3.7817   25.3234 C.3         1 AGY      -0.0402
     28 C20        27.3171   -2.6538   26.3875 C.3         1 AGY      -0.0830
     29 C21        28.5057   -4.8519   25.9516 C.3         1 AGY      -0.0830
     30 C22        28.3357   -3.2268   24.0912 C.3         1 AGY      -0.0830
     31 H1         21.2995   -8.6151   26.3541 H           1 AGY       0.2311
     32 H2         20.7697   -8.0480   23.0236 H           1 AGY       0.2168
     33 H3         21.9109   -6.9968   25.3087 H           1 AGY       0.2163
     34 H4         22.6318   -9.5961   27.5113 H           1 AGY       0.0629
     35 H5         18.0434  -10.0608   26.0664 H           1 AGY       0.0440
     36 H6         18.3352  -12.2897   29.5717 H           1 AGY       0.0439
     37 H7         20.4590  -12.3922   30.8278 H           1 AGY       0.0587
     38 H8         23.8579  -10.4015   29.3956 H           1 AGY       0.0578
     39 H9         17.0521  -11.4875   27.7019 H           1 AGY       0.0564
     40 H10        22.7800  -11.7919   31.0630 H           1 AGY       0.0611
     41 H11        23.7573   -4.6349   22.5711 H           1 AGY       0.0821
     42 H12        24.3898   -7.1123   25.8875 H           1 AGY       0.0777
     43 H13        26.1742   -5.7755   26.5670 H           1 AGY       0.0872
     44 H14        28.2715   -2.1930   26.6582 H           1 AGY       0.0139
     45 H15        26.8669   -3.0571   27.2964 H           1 AGY       0.0139
     46 H16        26.6626   -1.8700   26.0110 H           1 AGY       0.0139
     47 H17        28.5731   -5.7372   25.3052 H           1 AGY       0.0139
     48 H18        28.1854   -5.1794   26.9457 H           1 AGY       0.0139
     49 H19        29.5175   -4.4548   26.0940 H           1 AGY       0.0139
     50 H20        27.9603   -2.2817   23.7057 H           1 AGY       0.0139
     51 H21        28.3269   -3.9514   23.2749 H           1 AGY       0.0139
     52 H22        29.3806   -3.0236   24.3401 H           1 AGY       0.0139
@<TRIPOS>BOND
     1     4     1  ar
     2     1     7  ar
     3     1    10  ar
     4     2     4   1
     5    18     2  am
     6    18     3   2
     7     4    13  ar
     8     8     5   1
     9     5    18  am
    10    20     6   2
    11     7    14  ar
    12     7    15  ar
    13    20     8  am
    14    11     9   2
    15    10    16  ar
    16    11    12   2
    17    24    11   1
    18    13    17  ar
    19    17    14  ar
    20    15    19  ar
    21    16    19  ar
    22    21    20   1
    23    22    21  ar
    24    21    23  ar
    25    22    24  ar
    26    23    25  ar
    27    24    26  ar
    28    25    26  ar
    29    26    27   1
    30    27    28   1
    31    27    29   1
    32    27    30   1
    33     2    31   1
    34     5    32   1
    35     8    33   1
    36    10    34   1
    37    13    35   1
    38    14    36   1
    39    15    37   1
    40    16    38   1
    41    17    39   1
    42    19    40   1
    43    22    41   1
    44    23    42   1
    45    25    43   1
    46    28    44   1
    47    28    45   1
    48    28    46   1
    49    29    47   1
    50    29    48   1
    51    29    49   1
    52    30    50   1
    53    30    51   1
    54    30    52   1
@<TRIPOS>SUBSTRUCTURE
     1  AGY      1

