@<TRIPOS>MOLECULE
3jvs_ligand_002
    52    54
SMALL
GAST_HUCK
****
This file was generated by PARSER (from files_GN.cpp)

@<TRIPOS>ATOM
      1 C1         21.0636  -11.3346   26.6643 C.ar        1 AGY       0.0113
      2 N1         22.3743  -10.1499   24.9271 N.am        1 AGY      -0.2122
      3 O1         20.5070  -10.2015   23.7128 O.2         1 AGY      -0.3871
      4 C2         22.1435  -11.2394   25.7292 C.ar        1 AGY       0.0814
      5 N2         21.7580   -8.4730   23.4155 N.am        1 AGY      -0.1624
      6 O2         21.6880   -5.9524   24.3885 O.2         1 AGY      -0.3706
      7 C3         20.9424  -12.5017   27.4831 C.ar        1 AGY      -0.0315
      8 N3         22.8070   -7.7204   23.5910 N.am        1 AGY      -0.1773
      9 O3         28.1382   -5.9285   26.2285 O.2         1 AGY       0.1875
     10 C4         20.1264  -10.2892   26.8531 C.ar        1 AGY      -0.0551
     11 N4         26.8546   -5.9376   26.4298 N.2         1 AGY       0.3329
     12 O4         26.5198   -6.7341   27.2713 O.2         1 AGY       0.1875
     13 C5         23.0980  -12.2815   25.6750 C.ar        1 AGY      -0.0435
     14 C6         21.8970  -13.5369   27.3832 C.ar        1 AGY      -0.0747
     15 C7         19.8813  -12.6129   28.4124 C.ar        1 AGY      -0.0608
     16 C8         19.0721  -10.4130   27.7735 C.ar        1 AGY      -0.0647
     17 C9         22.9673  -13.4218   26.4857 C.ar        1 AGY      -0.0816
     18 C10        21.5549   -9.6421   24.0038 C.2         1 AGY       0.3134
     19 C11        18.9467  -11.5727   28.5558 C.ar        1 AGY      -0.0656
     20 C12        22.7551   -6.4573   24.0306 C.2         1 AGY       0.2462
     21 C13        23.9160   -5.7514   24.2358 C.ar        1 AGY       0.0865
     22 C14        24.7804   -6.0657   25.3042 C.ar        1 AGY       0.0278
     23 C15        24.2922   -4.7132   23.3638 C.ar        1 AGY      -0.0096
     24 C16        26.0004   -5.3629   25.5286 C.ar        1 AGY       0.2244
     25 C17        25.4547   -3.9682   23.6141 C.ar        1 AGY      -0.0290
     26 C18        26.2836   -4.1870   24.7500 C.ar        1 AGY      -0.0051
     27 C19        27.2850   -3.0808   25.1456 C.3         1 AGY      -0.0402
     28 C20        26.8822   -1.6518   24.6043 C.3         1 AGY      -0.0830
     29 C21        27.3573   -2.8689   26.7053 C.3         1 AGY      -0.0830
     30 C22        28.7031   -3.3606   24.5532 C.3         1 AGY      -0.0830
     31 H1         23.2292   -9.7112   25.0433 H           1 AGY       0.2311
     32 H2         21.0668   -8.1364   22.8288 H           1 AGY       0.2168
     33 H3         23.6815   -8.1065   23.4532 H           1 AGY       0.2163
     34 H4         20.2019   -9.4109   26.3360 H           1 AGY       0.0629
     35 H5         23.8885  -12.2214   25.0257 H           1 AGY       0.0440
     36 H6         21.8275  -14.3735   27.9786 H           1 AGY       0.0439
     37 H7         19.7864  -13.4412   29.0081 H           1 AGY       0.0587
     38 H8         18.4031   -9.6470   27.8878 H           1 AGY       0.0578
     39 H9         23.6674  -14.1689   26.4315 H           1 AGY       0.0564
     40 H10        18.1907  -11.6494   29.2398 H           1 AGY       0.0611
     41 H11        24.5253   -6.8534   25.9031 H           1 AGY       0.0821
     42 H12        23.7142   -4.4939   22.5489 H           1 AGY       0.0777
     43 H13        25.6491   -3.2210   22.9499 H           1 AGY       0.0872
     44 H14        27.4973   -0.8591   25.0349 H           1 AGY       0.0139
     45 H15        25.8361   -1.4347   24.8336 H           1 AGY       0.0139
     46 H16        27.0150   -1.5738   23.5241 H           1 AGY       0.0139
     47 H17        27.8420   -3.6818   27.2348 H           1 AGY       0.0139
     48 H18        26.3512   -2.7536   27.1144 H           1 AGY       0.0139
     49 H19        27.9344   -1.9783   26.9715 H           1 AGY       0.0139
     50 H20        28.6563   -3.4527   23.4648 H           1 AGY       0.0139
     51 H21        29.1405   -4.2701   24.9435 H           1 AGY       0.0139
     52 H22        29.3894   -2.5412   24.7894 H           1 AGY       0.0139
@<TRIPOS>BOND
     1     4     1  ar
     2     1     7  ar
     3     1    10  ar
     4     2     4   1
     5    18     2  am
     6    18     3   2
     7     4    13  ar
     8     8     5   1
     9     5    18  am
    10    20     6   2
    11     7    14  ar
    12     7    15  ar
    13    20     8  am
    14    11     9   2
    15    10    16  ar
    16    11    12   2
    17    24    11   1
    18    13    17  ar
    19    17    14  ar
    20    15    19  ar
    21    16    19  ar
    22    21    20   1
    23    22    21  ar
    24    21    23  ar
    25    22    24  ar
    26    23    25  ar
    27    24    26  ar
    28    25    26  ar
    29    26    27   1
    30    27    28   1
    31    27    29   1
    32    27    30   1
    33     2    31   1
    34     5    32   1
    35     8    33   1
    36    10    34   1
    37    13    35   1
    38    14    36   1
    39    15    37   1
    40    16    38   1
    41    17    39   1
    42    19    40   1
    43    22    41   1
    44    23    42   1
    45    25    43   1
    46    28    44   1
    47    28    45   1
    48    28    46   1
    49    29    47   1
    50    29    48   1
    51    29    49   1
    52    30    50   1
    53    30    51   1
    54    30    52   1
@<TRIPOS>SUBSTRUCTURE
     1  AGY      1

