@<TRIPOS>MOLECULE
3k5v_ligand_001
    40    42
SMALL
GAST_HUCK
****
This file was generated by PARSER (from files_GN.cpp)

@<TRIPOS>ATOM
      1 F1         16.5786   40.3463   50.3433 F           1 STJ      -0.1403
      2 C2         16.5915   41.3227   51.3037 C.3         1 STJ       0.5443
      3 F3         16.0924   42.4696   50.7430 F           1 STJ      -0.1403
      4 F4         15.7746   40.9084   52.3240 F           1 STJ      -0.1403
      5 O5         17.9597   41.4484   51.7339 O.3         1 STJ      -0.2334
      6 C6         18.3351   42.5372   52.4763 C.ar        1 STJ       0.0890
      7 C7         19.4732   43.2494   52.0580 C.ar        1 STJ      -0.0416
      8 C9         20.0395   44.2424   52.8742 C.ar        1 STJ      -0.0462
      9 C11        19.4926   44.5270   54.1498 C.ar        1 STJ       0.0536
     10 C12        18.2927   43.8810   54.5261 C.ar        1 STJ      -0.0462
     11 C14        17.7270   42.8828   53.7073 C.ar        1 STJ      -0.0416
     12 N16        20.0343   45.4284   55.0335 N.pl3       1 STJ      -0.2596
     13 C18        21.3423   45.6709   55.3196 C.ar        1 STJ       0.1450
     14 N19        21.5726   46.6791   56.1986 N.ar        1 STJ      -0.2510
     15 C20        22.8182   47.0505   56.5933 C.ar        1 STJ       0.0700
     16 N22        23.8995   46.4061   56.0842 N.ar        1 STJ      -0.2790
     17 C23        23.7548   45.3792   55.2118 C.ar        1 STJ       0.0556
     18 C24        22.4628   44.9619   54.8217 C.ar        1 STJ       0.0164
     19 C26        24.8963   44.7865   54.6412 C.ar        1 STJ       0.0087
     20 C27        25.3520   45.2218   53.3744 C.ar        1 STJ      -0.0286
     21 C29        26.4880   44.6505   52.7463 C.ar        1 STJ       0.0537
     22 C30        27.1469   43.5939   53.4301 C.ar        1 STJ      -0.0390
     23 C32        26.6893   43.1367   54.6808 C.ar        1 STJ      -0.0524
     24 C34        25.5737   43.7341   55.2895 C.ar        1 STJ      -0.0444
     25 C36        26.9404   45.1225   51.5019 C.2         1 STJ       0.2033
     26 O37        26.3403   46.0018   50.8985 O.2         1 STJ      -0.3848
     27 N38        28.0186   44.6843   50.8877 N.am        1 STJ      -0.3000
     28 H1         19.9125   43.0325   51.1661 H           1 STJ       0.0516
     29 H2         20.8650   44.7467   52.5405 H           1 STJ       0.0512
     30 H3         17.8455   44.1047   55.4320 H           1 STJ       0.0512
     31 H4         16.8990   42.3847   54.0292 H           1 STJ       0.0516
     32 H5         19.3918   45.9038   55.5877 H           1 STJ       0.2132
     33 H6         22.9450   47.8206   57.2450 H           1 STJ       0.1079
     34 H7         22.3508   44.1517   54.2040 H           1 STJ       0.0681
     35 H8         24.8461   45.9833   52.9126 H           1 STJ       0.0707
     36 H9         27.9638   43.1303   53.0271 H           1 STJ       0.0693
     37 H10        27.1763   42.3669   55.1533 H           1 STJ       0.0637
     38 H11        25.2580   43.3970   56.2044 H           1 STJ       0.0687
     39 H12        28.2736   45.0663   50.0347 H           1 STJ       0.1808
     40 H13        28.5733   43.9899   51.2769 H           1 STJ       0.1808
@<TRIPOS>BOND
     1     1     2   1
     2     2     3   1
     3     2     4   1
     4     2     5   1
     5     5     6   1
     6     6     7  ar
     7     6    11  ar
     8     7     8  ar
     9     8     9  ar
    10     9    10  ar
    11     9    12   1
    12    10    11  ar
    13    12    13   1
    14    13    14  ar
    15    13    18  ar
    16    14    15  ar
    17    15    16  ar
    18    16    17  ar
    19    17    18  ar
    20    17    19   1
    21    19    20  ar
    22    19    24  ar
    23    20    21  ar
    24    21    22  ar
    25    21    25   1
    26    22    23  ar
    27    23    24  ar
    28    25    26   2
    29    25    27  am
    30     7    28   1
    31     8    29   1
    32    10    30   1
    33    11    31   1
    34    12    32   1
    35    15    33   1
    36    18    34   1
    37    20    35   1
    38    22    36   1
    39    23    37   1
    40    24    38   1
    41    27    39   1
    42    27    40   1
@<TRIPOS>SUBSTRUCTURE
     1  STJ      2

