@<TRIPOS>MOLECULE
3k5v_ligand_003
    40    42
SMALL
GAST_HUCK
****
This file was generated by PARSER (from files_GN.cpp)

@<TRIPOS>ATOM
      1 F1         18.2291   38.3566   49.5588 F           1 STJ      -0.1403
      2 C2         18.4378   39.7024   49.7208 C.3         1 STJ       0.5443
      3 F3         19.7450   39.9625   49.3557 F           1 STJ      -0.1403
      4 F4         17.5804   40.3618   48.8738 F           1 STJ      -0.1403
      5 O5         18.1356   40.0034   51.1018 O.3         1 STJ      -0.2334
      6 C6         18.6647   41.1340   51.6696 C.ar        1 STJ       0.0890
      7 C7         19.3901   40.9620   52.8621 C.ar        1 STJ      -0.0416
      8 C9         19.9057   42.0741   53.5586 C.ar        1 STJ      -0.0462
      9 C11        19.7019   43.3812   53.0634 C.ar        1 STJ       0.0536
     10 C12        19.0131   43.5417   51.8412 C.ar        1 STJ      -0.0462
     11 C14        18.4703   42.4343   51.1639 C.ar        1 STJ      -0.0416
     12 N16        20.2085   44.5172   53.6331 N.pl3       1 STJ      -0.2596
     13 C18        20.3756   44.8676   54.9301 C.ar        1 STJ       0.1450
     14 N19        21.0434   46.0375   55.1260 N.ar        1 STJ      -0.2510
     15 C20        21.3088   46.5201   56.3643 C.ar        1 STJ       0.0700
     16 N22        20.8999   45.8278   57.4571 N.ar        1 STJ      -0.2790
     17 C23        20.2063   44.6663   57.3410 C.ar        1 STJ       0.0556
     18 C24        19.9066   44.1583   56.0577 C.ar        1 STJ       0.0164
     19 C26        19.8215   43.9770   58.5027 C.ar        1 STJ       0.0087
     20 C27        18.5479   44.1726   59.0825 C.ar        1 STJ      -0.0286
     21 C29        18.1427   43.4647   60.2430 C.ar        1 STJ       0.0537
     22 C30        19.0597   42.5291   60.7923 C.ar        1 STJ      -0.0390
     23 C32        20.3362   42.3411   60.2291 C.ar        1 STJ      -0.0524
     24 C34        20.7190   43.0663   59.0937 C.ar        1 STJ      -0.0444
     25 C36        16.8895   43.7134   60.8263 C.2         1 STJ       0.2033
     26 O37        16.2011   44.6649   60.4860 O.2         1 STJ      -0.3848
     27 N38        16.3678   42.9806   61.7878 N.am        1 STJ      -0.3000
     28 H1         19.5433   40.0201   53.2323 H           1 STJ       0.0516
     29 H2         20.4510   41.9232   54.4063 H           1 STJ       0.0512
     30 H3         18.8841   44.4755   51.4413 H           1 STJ       0.0512
     31 H4         17.9305   42.5879   50.3149 H           1 STJ       0.0516
     32 H5         20.4655   45.2044   52.9988 H           1 STJ       0.2132
     33 H6         21.8175   47.3959   56.4744 H           1 STJ       0.1079
     34 H7         19.3538   43.3060   55.9509 H           1 STJ       0.0681
     35 H8         17.9085   44.8435   58.6470 H           1 STJ       0.0707
     36 H9         18.8223   41.9863   61.6233 H           1 STJ       0.0693
     37 H10        20.9889   41.6758   60.6508 H           1 STJ       0.0637
     38 H11        21.6545   42.9239   58.7034 H           1 STJ       0.0687
     39 H12        15.5058   43.2230   62.1682 H           1 STJ       0.1808
     40 H13        16.8294   42.1944   62.1171 H           1 STJ       0.1808
@<TRIPOS>BOND
     1     1     2   1
     2     2     3   1
     3     2     4   1
     4     2     5   1
     5     5     6   1
     6     6     7  ar
     7     6    11  ar
     8     7     8  ar
     9     8     9  ar
    10     9    10  ar
    11     9    12   1
    12    10    11  ar
    13    12    13   1
    14    13    14  ar
    15    13    18  ar
    16    14    15  ar
    17    15    16  ar
    18    16    17  ar
    19    17    18  ar
    20    17    19   1
    21    19    20  ar
    22    19    24  ar
    23    20    21  ar
    24    21    22  ar
    25    21    25   1
    26    22    23  ar
    27    23    24  ar
    28    25    26   2
    29    25    27  am
    30     7    28   1
    31     8    29   1
    32    10    30   1
    33    11    31   1
    34    12    32   1
    35    15    33   1
    36    18    34   1
    37    20    35   1
    38    22    36   1
    39    23    37   1
    40    24    38   1
    41    27    39   1
    42    27    40   1
@<TRIPOS>SUBSTRUCTURE
     1  STJ      2

