@<TRIPOS>MOLECULE
3k5v_ligand_009
    40    42
SMALL
GAST_HUCK
****
This file was generated by PARSER (from files_GN.cpp)

@<TRIPOS>ATOM
      1 F1         14.0535   38.1860   48.8444 F           1 STJ      -0.1403
      2 C2         15.4001   38.4283   48.7538 C.3         1 STJ       0.5443
      3 F3         16.0306   37.2530   48.4224 F           1 STJ      -0.1403
      4 F4         15.5653   39.3675   47.7632 F           1 STJ      -0.1403
      5 O5         15.8380   38.8896   50.0396 O.3         1 STJ      -0.2334
      6 C6         17.1419   39.2415   50.3082 C.ar        1 STJ       0.0890
      7 C7         17.4421   39.3874   51.6760 C.ar        1 STJ      -0.0416
      8 C9         18.6753   39.9253   52.0872 C.ar        1 STJ      -0.0462
      9 C11        19.6103   40.3985   51.1369 C.ar        1 STJ       0.0536
     10 C12        19.3710   40.1116   49.7762 C.ar        1 STJ      -0.0462
     11 C14        18.1562   39.5344   49.3635 C.ar        1 STJ      -0.0416
     12 N16        20.7593   41.0766   51.4469 N.pl3       1 STJ      -0.2596
     13 C18        21.0201   41.9469   52.4643 C.ar        1 STJ       0.1450
     14 N19        22.3079   42.3704   52.5621 N.ar        1 STJ      -0.2510
     15 C20        22.7310   43.1934   53.5576 C.ar        1 STJ       0.0700
     16 N22        21.8620   43.5921   54.5192 N.ar        1 STJ      -0.2790
     17 C23        20.5475   43.2395   54.4943 C.ar        1 STJ       0.0556
     18 C24        20.0955   42.4359   53.4221 C.ar        1 STJ       0.0164
     19 C26        19.6904   43.5986   55.5786 C.ar        1 STJ       0.0087
     20 C27        20.1473   43.5058   56.9189 C.ar        1 STJ      -0.0286
     21 C29        19.2960   43.7386   58.0355 C.ar        1 STJ       0.0537
     22 C30        17.9463   44.0800   57.7608 C.ar        1 STJ      -0.0390
     23 C32        17.4767   44.1981   56.4409 C.ar        1 STJ      -0.0524
     24 C34        18.3400   43.9663   55.3611 C.ar        1 STJ      -0.0444
     25 C36        19.7620   43.6097   59.3570 C.2         1 STJ       0.2033
     26 O37        20.9193   43.2870   59.5925 O.2         1 STJ      -0.3848
     27 N38        19.0204   43.8135   60.4269 N.am        1 STJ      -0.3000
     28 H1         16.7498   39.1233   52.3903 H           1 STJ       0.0516
     29 H2         18.8744   39.9813   53.0881 H           1 STJ       0.0512
     30 H3         20.0600   40.3656   49.0663 H           1 STJ       0.0512
     31 H4         18.0130   39.3727   48.3671 H           1 STJ       0.0516
     32 H5         21.4787   40.9454   50.8068 H           1 STJ       0.2132
     33 H6         23.7031   43.4894   53.6082 H           1 STJ       0.1079
     34 H7         19.1070   42.1913   53.3635 H           1 STJ       0.0681
     35 H8         21.1162   43.2151   57.0804 H           1 STJ       0.0707
     36 H9         17.2809   44.2607   58.5187 H           1 STJ       0.0693
     37 H10        16.5020   44.4576   56.2695 H           1 STJ       0.0637
     38 H11        17.9702   44.0709   54.4144 H           1 STJ       0.0687
     39 H12        19.4075   43.7033   61.3099 H           1 STJ       0.1808
     40 H13        18.0908   44.0792   60.3481 H           1 STJ       0.1808
@<TRIPOS>BOND
     1     1     2   1
     2     2     3   1
     3     2     4   1
     4     2     5   1
     5     5     6   1
     6     6     7  ar
     7     6    11  ar
     8     7     8  ar
     9     8     9  ar
    10     9    10  ar
    11     9    12   1
    12    10    11  ar
    13    12    13   1
    14    13    14  ar
    15    13    18  ar
    16    14    15  ar
    17    15    16  ar
    18    16    17  ar
    19    17    18  ar
    20    17    19   1
    21    19    20  ar
    22    19    24  ar
    23    20    21  ar
    24    21    22  ar
    25    21    25   1
    26    22    23  ar
    27    23    24  ar
    28    25    26   2
    29    25    27  am
    30     7    28   1
    31     8    29   1
    32    10    30   1
    33    11    31   1
    34    12    32   1
    35    15    33   1
    36    18    34   1
    37    20    35   1
    38    22    36   1
    39    23    37   1
    40    24    38   1
    41    27    39   1
    42    27    40   1
@<TRIPOS>SUBSTRUCTURE
     1  STJ      2

