@<TRIPOS>MOLECULE
3k5v_ligand_014
    40    42
SMALL
GAST_HUCK
****
This file was generated by PARSER (from files_GN.cpp)

@<TRIPOS>ATOM
      1 F1         16.9695   44.5208   63.0305 F           1 STJ      -0.1403
      2 C2         16.2131   43.9429   62.0249 C.3         1 STJ       0.5443
      3 F3         15.0739   43.4467   62.6172 F           1 STJ      -0.1403
      4 F4         15.8183   44.9193   61.1345 F           1 STJ      -0.1403
      5 O5         16.8568   42.8256   61.3790 O.3         1 STJ      -0.2334
      6 C6         18.0411   43.1240   60.7589 C.ar        1 STJ       0.0890
      7 C7         18.0607   43.3758   59.3699 C.ar        1 STJ      -0.0416
      8 C9         19.2776   43.5808   58.6939 C.ar        1 STJ      -0.0462
      9 C11        20.5052   43.5466   59.3985 C.ar        1 STJ       0.0536
     10 C12        20.4867   43.2642   60.7861 C.ar        1 STJ      -0.0462
     11 C14        19.2722   43.0432   61.4567 C.ar        1 STJ      -0.0416
     12 N16        21.6387   43.6038   58.6481 N.pl3       1 STJ      -0.2596
     13 C18        22.8460   44.1487   58.9131 C.ar        1 STJ       0.1450
     14 N19        23.7975   43.8640   57.9919 N.ar        1 STJ      -0.2510
     15 C20        25.0648   44.3309   58.0788 C.ar        1 STJ       0.0700
     16 N22        25.3970   45.1293   59.1177 N.ar        1 STJ      -0.2790
     17 C23        24.5157   45.4919   60.0889 C.ar        1 STJ       0.0556
     18 C24        23.1902   44.9926   59.9930 C.ar        1 STJ       0.0164
     19 C26        24.9737   46.3616   61.1273 C.ar        1 STJ       0.0087
     20 C27        26.2622   46.1906   61.7024 C.ar        1 STJ      -0.0286
     21 C29        26.7777   47.0531   62.7085 C.ar        1 STJ       0.0537
     22 C30        25.9479   48.1225   63.1347 C.ar        1 STJ      -0.0390
     23 C32        24.6735   48.3200   62.5769 C.ar        1 STJ      -0.0524
     24 C34        24.1917   47.4530   61.5827 C.ar        1 STJ      -0.0444
     25 C36        28.0483   46.8409   63.2545 C.2         1 STJ       0.2033
     26 O37        28.7127   45.8507   62.9652 O.2         1 STJ      -0.3848
     27 N38        28.6406   47.6535   64.1078 N.am        1 STJ      -0.3000
     28 H1         17.1762   43.3954   58.8471 H           1 STJ       0.0516
     29 H2         19.2603   43.7435   57.6802 H           1 STJ       0.0512
     30 H3         21.3691   43.1525   61.2942 H           1 STJ       0.0512
     31 H4         19.2861   42.8075   62.4495 H           1 STJ       0.0516
     32 H5         21.5709   43.1809   57.7759 H           1 STJ       0.2132
     33 H6         25.7634   44.0859   57.3700 H           1 STJ       0.1079
     34 H7         22.4891   45.2491   60.6912 H           1 STJ       0.0681
     35 H8         26.8347   45.4009   61.3838 H           1 STJ       0.0707
     36 H9         26.2648   48.7814   63.8476 H           1 STJ       0.0693
     37 H10        24.0902   49.0945   62.9029 H           1 STJ       0.0637
     38 H11        23.2695   47.6452   61.1809 H           1 STJ       0.0687
     39 H12        29.5200   47.4363   64.4535 H           1 STJ       0.1808
     40 H13        28.2046   48.4703   64.3977 H           1 STJ       0.1808
@<TRIPOS>BOND
     1     1     2   1
     2     2     3   1
     3     2     4   1
     4     2     5   1
     5     5     6   1
     6     6     7  ar
     7     6    11  ar
     8     7     8  ar
     9     8     9  ar
    10     9    10  ar
    11     9    12   1
    12    10    11  ar
    13    12    13   1
    14    13    14  ar
    15    13    18  ar
    16    14    15  ar
    17    15    16  ar
    18    16    17  ar
    19    17    18  ar
    20    17    19   1
    21    19    20  ar
    22    19    24  ar
    23    20    21  ar
    24    21    22  ar
    25    21    25   1
    26    22    23  ar
    27    23    24  ar
    28    25    26   2
    29    25    27  am
    30     7    28   1
    31     8    29   1
    32    10    30   1
    33    11    31   1
    34    12    32   1
    35    15    33   1
    36    18    34   1
    37    20    35   1
    38    22    36   1
    39    23    37   1
    40    24    38   1
    41    27    39   1
    42    27    40   1
@<TRIPOS>SUBSTRUCTURE
     1  STJ      2

