@<TRIPOS>MOLECULE
3k5v_ligand_006
    40    42
SMALL
GAST_HUCK
****
This file was generated by PARSER (from files_GN.cpp)

@<TRIPOS>ATOM
      1 F1         25.5040   48.9343   59.0089 F           1 STJ      -0.1403
      2 C2         24.6748   47.9798   58.4805 C.3         1 STJ       0.5443
      3 F3         25.0187   46.7771   59.0533 F           1 STJ      -0.1403
      4 F4         23.3914   48.3093   58.8469 F           1 STJ      -0.1403
      5 O5         24.8643   47.9961   57.0524 O.3         1 STJ      -0.2334
      6 C6         24.2121   47.0189   56.3513 C.ar        1 STJ       0.0890
      7 C7         22.8443   47.1245   56.0403 C.ar        1 STJ      -0.0416
      8 C9         22.2177   46.1602   55.2331 C.ar        1 STJ      -0.0462
      9 C11        22.9395   45.0484   54.7341 C.ar        1 STJ       0.0536
     10 C12        24.3191   44.9637   55.0385 C.ar        1 STJ      -0.0462
     11 C14        24.9500   45.9383   55.8360 C.ar        1 STJ      -0.0416
     12 N16        22.4341   44.0562   53.9375 N.pl3       1 STJ      -0.2596
     13 C18        21.1533   43.6846   53.6881 C.ar        1 STJ       0.1450
     14 N19        20.0733   44.2615   54.2782 N.ar        1 STJ      -0.2510
     15 C20        18.8034   43.8605   54.0283 C.ar        1 STJ       0.0700
     16 N22        18.5881   42.8356   53.1656 N.ar        1 STJ      -0.2790
     17 C23        19.6083   42.2002   52.5295 C.ar        1 STJ       0.0556
     18 C24        20.9336   42.6221   52.7876 C.ar        1 STJ       0.0164
     19 C26        19.3071   41.1350   51.6406 C.ar        1 STJ       0.0087
     20 C27        18.3669   40.1407   52.0030 C.ar        1 STJ      -0.0286
     21 C29        18.0477   39.0507   51.1476 C.ar        1 STJ       0.0537
     22 C30        18.6873   39.0094   49.8834 C.ar        1 STJ      -0.0390
     23 C32        19.6084   39.9980   49.5016 C.ar        1 STJ      -0.0524
     24 C34        19.9250   41.0475   50.3750 C.ar        1 STJ      -0.0444
     25 C36        17.1496   38.0437   51.5343 C.2         1 STJ       0.2033
     26 O37        16.9681   37.0486   50.8435 O.2         1 STJ      -0.3848
     27 N38        16.4508   38.0791   52.6477 N.am        1 STJ      -0.3000
     28 H1         22.2988   47.9154   56.3827 H           1 STJ       0.0516
     29 H2         21.2383   46.3090   54.9929 H           1 STJ       0.0512
     30 H3         24.8804   44.1878   54.6738 H           1 STJ       0.0512
     31 H4         25.9512   45.8624   56.0307 H           1 STJ       0.0516
     32 H5         23.1044   43.5040   53.5043 H           1 STJ       0.2132
     33 H6         18.0170   44.3244   54.4869 H           1 STJ       0.1079
     34 H7         21.7245   42.1528   52.3435 H           1 STJ       0.0681
     35 H8         17.9349   40.2061   52.9272 H           1 STJ       0.0707
     36 H9         18.4902   38.2574   49.2210 H           1 STJ       0.0693
     37 H10        20.0500   39.9584   48.5804 H           1 STJ       0.0637
     38 H11        20.5942   41.7614   50.0687 H           1 STJ       0.0687
     39 H12        15.8580   37.3488   52.8897 H           1 STJ       0.1808
     40 H13        16.5181   38.8314   53.2485 H           1 STJ       0.1808
@<TRIPOS>BOND
     1     1     2   1
     2     2     3   1
     3     2     4   1
     4     2     5   1
     5     5     6   1
     6     6     7  ar
     7     6    11  ar
     8     7     8  ar
     9     8     9  ar
    10     9    10  ar
    11     9    12   1
    12    10    11  ar
    13    12    13   1
    14    13    14  ar
    15    13    18  ar
    16    14    15  ar
    17    15    16  ar
    18    16    17  ar
    19    17    18  ar
    20    17    19   1
    21    19    20  ar
    22    19    24  ar
    23    20    21  ar
    24    21    22  ar
    25    21    25   1
    26    22    23  ar
    27    23    24  ar
    28    25    26   2
    29    25    27  am
    30     7    28   1
    31     8    29   1
    32    10    30   1
    33    11    31   1
    34    12    32   1
    35    15    33   1
    36    18    34   1
    37    20    35   1
    38    22    36   1
    39    23    37   1
    40    24    38   1
    41    27    39   1
    42    27    40   1
@<TRIPOS>SUBSTRUCTURE
     1  STJ      2

