@<TRIPOS>MOLECULE
3k5v_ligand_007
    40    42
SMALL
GAST_HUCK
****
This file was generated by PARSER (from files_GN.cpp)

@<TRIPOS>ATOM
      1 F1         27.5182   45.6637   57.3002 F           1 STJ      -0.1403
      2 C2         26.1996   45.3122   57.4330 C.3         1 STJ       0.5443
      3 F3         26.1643   43.9675   57.7242 F           1 STJ      -0.1403
      4 F4         25.6920   46.0223   58.4973 F           1 STJ      -0.1403
      5 O5         25.5427   45.6295   56.1885 O.3         1 STJ      -0.2334
      6 C6         24.1989   45.3683   56.1469 C.ar        1 STJ       0.0890
      7 C7         23.7288   44.0805   55.8205 C.ar        1 STJ      -0.0416
      8 C9         22.3480   43.8236   55.7567 C.ar        1 STJ      -0.0462
      9 C11        21.4115   44.8620   55.9724 C.ar        1 STJ       0.0536
     10 C12        21.8908   46.1481   56.3044 C.ar        1 STJ      -0.0462
     11 C14        23.2724   46.4047   56.3745 C.ar        1 STJ      -0.0416
     12 N16        20.0610   44.6737   55.9877 N.pl3       1 STJ      -0.2596
     13 C18        19.2646   43.9155   55.1954 C.ar        1 STJ       0.1450
     14 N19        17.9557   43.8721   55.5620 N.ar        1 STJ      -0.2510
     15 C20        17.0310   43.1636   54.8761 C.ar        1 STJ       0.0700
     16 N22        17.4120   42.4634   53.7825 N.ar        1 STJ      -0.2790
     17 C23        18.6948   42.4529   53.3270 C.ar        1 STJ       0.0556
     18 C24        19.6594   43.2071   54.0374 C.ar        1 STJ       0.0164
     19 C26        19.0070   41.6875   52.1671 C.ar        1 STJ       0.0087
     20 C27        18.3835   40.4336   51.9417 C.ar        1 STJ      -0.0286
     21 C29        18.6496   39.6476   50.7889 C.ar        1 STJ       0.0537
     22 C30        19.5695   40.1718   49.8446 C.ar        1 STJ      -0.0390
     23 C32        20.2033   41.4077   50.0504 C.ar        1 STJ      -0.0524
     24 C34        19.9254   42.1594   51.2009 C.ar        1 STJ      -0.0444
     25 C36        18.0309   38.4058   50.5753 C.2         1 STJ       0.2033
     26 O37        18.1970   37.7793   49.5374 O.2         1 STJ      -0.3848
     27 N38        17.2390   37.8118   51.4454 N.am        1 STJ      -0.3000
     28 H1         24.3923   43.3237   55.6460 H           1 STJ       0.0516
     29 H2         22.0340   42.8677   55.5829 H           1 STJ       0.0512
     30 H3         21.2344   46.9106   56.4884 H           1 STJ       0.0512
     31 H4         23.6028   47.3457   56.5994 H           1 STJ       0.0516
     32 H5         19.5859   45.2014   56.6455 H           1 STJ       0.2132
     33 H6         16.0602   43.1449   55.1897 H           1 STJ       0.1079
     34 H7         20.6253   43.2400   53.7129 H           1 STJ       0.0681
     35 H8         17.7241   40.0887   52.6435 H           1 STJ       0.0707
     36 H9         19.7892   39.6619   48.9858 H           1 STJ       0.0693
     37 H10        20.8579   41.7689   49.3535 H           1 STJ       0.0637
     38 H11        20.3805   43.0696   51.3069 H           1 STJ       0.0687
     39 H12        16.8481   36.9502   51.2288 H           1 STJ       0.1808
     40 H13        17.0501   38.2118   52.3079 H           1 STJ       0.1808
@<TRIPOS>BOND
     1     1     2   1
     2     2     3   1
     3     2     4   1
     4     2     5   1
     5     5     6   1
     6     6     7  ar
     7     6    11  ar
     8     7     8  ar
     9     8     9  ar
    10     9    10  ar
    11     9    12   1
    12    10    11  ar
    13    12    13   1
    14    13    14  ar
    15    13    18  ar
    16    14    15  ar
    17    15    16  ar
    18    16    17  ar
    19    17    18  ar
    20    17    19   1
    21    19    20  ar
    22    19    24  ar
    23    20    21  ar
    24    21    22  ar
    25    21    25   1
    26    22    23  ar
    27    23    24  ar
    28    25    26   2
    29    25    27  am
    30     7    28   1
    31     8    29   1
    32    10    30   1
    33    11    31   1
    34    12    32   1
    35    15    33   1
    36    18    34   1
    37    20    35   1
    38    22    36   1
    39    23    37   1
    40    24    38   1
    41    27    39   1
    42    27    40   1
@<TRIPOS>SUBSTRUCTURE
     1  STJ      2

