@<TRIPOS>MOLECULE
3k5v_ligand_004
    40    42
SMALL
GAST_HUCK
****
This file was generated by PARSER (from files_GN.cpp)

@<TRIPOS>ATOM
      1 F1         13.6049   45.0501   63.6348 F           1 STJ      -0.1403
      2 C2         14.2228   44.4639   62.5606 C.3         1 STJ       0.5443
      3 F3         14.1685   43.1036   62.7485 F           1 STJ      -0.1403
      4 F4         13.5237   44.8227   61.4324 F           1 STJ      -0.1403
      5 O5         15.5800   44.9380   62.5336 O.3         1 STJ      -0.2334
      6 C6         16.4584   44.6515   61.5091 C.ar        1 STJ       0.0890
      7 C7         16.2973   43.6623   60.5118 C.ar        1 STJ      -0.0416
      8 C9         17.2917   43.4539   59.5352 C.ar        1 STJ      -0.0462
      9 C11        18.4734   44.2287   59.5158 C.ar        1 STJ       0.0536
     10 C12        18.6318   45.2133   60.5210 C.ar        1 STJ      -0.0462
     11 C14        17.6388   45.4183   61.4970 C.ar        1 STJ      -0.0416
     12 N16        19.4022   43.9014   58.5577 N.pl3       1 STJ      -0.2596
     13 C18        20.4897   44.5772   58.1034 C.ar        1 STJ       0.1450
     14 N19        20.7990   45.8442   58.4919 N.ar        1 STJ      -0.2510
     15 C20        21.8882   46.5041   58.0318 C.ar        1 STJ       0.0700
     16 N22        22.7061   45.8915   57.1440 N.ar        1 STJ      -0.2790
     17 C23        22.4774   44.6307   56.6849 C.ar        1 STJ       0.0556
     18 C24        21.3357   43.9439   57.1650 C.ar        1 STJ       0.0164
     19 C26        23.3755   44.0900   55.7202 C.ar        1 STJ       0.0087
     20 C27        24.7762   44.2841   55.8417 C.ar        1 STJ      -0.0286
     21 C29        25.6957   43.8366   54.8541 C.ar        1 STJ       0.0537
     22 C30        25.1579   43.1914   53.7117 C.ar        1 STJ      -0.0390
     23 C32        23.7764   42.9800   53.5753 C.ar        1 STJ      -0.0524
     24 C34        22.8947   43.4132   54.5767 C.ar        1 STJ      -0.0444
     25 C36        27.0784   44.0264   55.0104 C.2         1 STJ       0.2033
     26 O37        27.5498   44.4737   56.0467 O.2         1 STJ      -0.3848
     27 N38        27.9697   43.7431   54.0824 N.am        1 STJ      -0.3000
     28 H1         15.4598   43.0814   60.4895 H           1 STJ       0.0516
     29 H2         17.1472   42.7207   58.8355 H           1 STJ       0.0512
     30 H3         19.4822   45.7698   60.5885 H           1 STJ       0.0512
     31 H4         17.7886   46.1278   62.2185 H           1 STJ       0.0516
     32 H5         19.2445   43.0468   58.1196 H           1 STJ       0.2132
     33 H6         22.0883   47.4552   58.3441 H           1 STJ       0.1079
     34 H7         21.1354   42.9887   56.8568 H           1 STJ       0.0681
     35 H8         25.1314   44.7644   56.6738 H           1 STJ       0.0707
     36 H9         25.7653   42.8506   52.9649 H           1 STJ       0.0693
     37 H10        23.4103   42.5126   52.7422 H           1 STJ       0.0637
     38 H11        21.8922   43.2626   54.4409 H           1 STJ       0.0687
     39 H12        28.9124   43.8843   54.2606 H           1 STJ       0.1808
     40 H13        27.7006   43.3941   53.2202 H           1 STJ       0.1808
@<TRIPOS>BOND
     1     1     2   1
     2     2     3   1
     3     2     4   1
     4     2     5   1
     5     5     6   1
     6     6     7  ar
     7     6    11  ar
     8     7     8  ar
     9     8     9  ar
    10     9    10  ar
    11     9    12   1
    12    10    11  ar
    13    12    13   1
    14    13    14  ar
    15    13    18  ar
    16    14    15  ar
    17    15    16  ar
    18    16    17  ar
    19    17    18  ar
    20    17    19   1
    21    19    20  ar
    22    19    24  ar
    23    20    21  ar
    24    21    22  ar
    25    21    25   1
    26    22    23  ar
    27    23    24  ar
    28    25    26   2
    29    25    27  am
    30     7    28   1
    31     8    29   1
    32    10    30   1
    33    11    31   1
    34    12    32   1
    35    15    33   1
    36    18    34   1
    37    20    35   1
    38    22    36   1
    39    23    37   1
    40    24    38   1
    41    27    39   1
    42    27    40   1
@<TRIPOS>SUBSTRUCTURE
     1  STJ      2

