@<TRIPOS>MOLECULE
3k5v_ligand_002
    40    42
SMALL
GAST_HUCK
****
This file was generated by PARSER (from files_GN.cpp)

@<TRIPOS>ATOM
      1 F1         16.5906   38.3508   47.6108 F           1 STJ      -0.1403
      2 C2         17.4293   38.7347   48.6233 C.3         1 STJ       0.5443
      3 F3         18.0481   37.5905   49.0723 F           1 STJ      -0.1403
      4 F4         18.3751   39.5749   48.0852 F           1 STJ      -0.1403
      5 O5         16.6239   39.3813   49.6308 O.3         1 STJ      -0.2334
      6 C6         17.2986   39.9156   50.7040 C.ar        1 STJ       0.0890
      7 C7         17.3840   41.3149   50.8673 C.ar        1 STJ      -0.0416
      8 C9         18.0719   41.8663   51.9684 C.ar        1 STJ      -0.0462
      9 C11        18.6975   41.0272   52.9250 C.ar        1 STJ       0.0536
     10 C12        18.5798   39.6306   52.7646 C.ar        1 STJ      -0.0462
     11 C14        17.8652   39.0814   51.6897 C.ar        1 STJ      -0.0416
     12 N16        19.3831   41.4193   54.0420 N.pl3       1 STJ      -0.2596
     13 C18        19.8251   42.6303   54.4568 C.ar        1 STJ       0.1450
     14 N19        19.6684   43.7808   53.7489 N.ar        1 STJ      -0.2510
     15 C20        20.1408   44.9730   54.1855 C.ar        1 STJ       0.0700
     16 N22        20.7929   45.0347   55.3716 N.ar        1 STJ      -0.2790
     17 C23        20.9891   43.9338   56.1479 C.ar        1 STJ       0.0556
     18 C24        20.5092   42.6868   55.6895 C.ar        1 STJ       0.0164
     19 C26        21.6607   44.0723   57.3877 C.ar        1 STJ       0.0087
     20 C27        21.1197   43.5278   58.5785 C.ar        1 STJ      -0.0286
     21 C29        21.7695   43.6727   59.8319 C.ar        1 STJ       0.0537
     22 C30        22.9907   44.3971   59.8522 C.ar        1 STJ      -0.0390
     23 C32        23.5473   44.9298   58.6772 C.ar        1 STJ      -0.0524
     24 C34        22.8824   44.7760   57.4521 C.ar        1 STJ      -0.0444
     25 C36        21.2362   43.1283   61.0113 C.2         1 STJ       0.2033
     26 O37        21.7681   43.3073   62.0982 O.2         1 STJ      -0.3848
     27 N38        20.1361   42.4049   61.0625 N.am        1 STJ      -0.3000
     28 H1         16.9360   41.9352   50.1887 H           1 STJ       0.0516
     29 H2         18.0856   42.8806   52.0601 H           1 STJ       0.0512
     30 H3         19.0055   38.9934   53.4425 H           1 STJ       0.0512
     31 H4         17.7621   38.0661   51.6264 H           1 STJ       0.0516
     32 H5         19.6263   40.6883   54.6346 H           1 STJ       0.2132
     33 H6         20.0158   45.8131   53.6243 H           1 STJ       0.1079
     34 H7         20.6568   41.8370   56.2422 H           1 STJ       0.0681
     35 H8         20.2261   43.0329   58.5253 H           1 STJ       0.0707
     36 H9         23.5019   44.5401   60.7262 H           1 STJ       0.0693
     37 H10        24.4356   45.4372   58.7169 H           1 STJ       0.0637
     38 H11        23.3023   45.1795   56.6089 H           1 STJ       0.0687
     39 H12        19.8240   42.0662   61.9167 H           1 STJ       0.1808
     40 H13        19.6459   42.1831   60.2583 H           1 STJ       0.1808
@<TRIPOS>BOND
     1     1     2   1
     2     2     3   1
     3     2     4   1
     4     2     5   1
     5     5     6   1
     6     6     7  ar
     7     6    11  ar
     8     7     8  ar
     9     8     9  ar
    10     9    10  ar
    11     9    12   1
    12    10    11  ar
    13    12    13   1
    14    13    14  ar
    15    13    18  ar
    16    14    15  ar
    17    15    16  ar
    18    16    17  ar
    19    17    18  ar
    20    17    19   1
    21    19    20  ar
    22    19    24  ar
    23    20    21  ar
    24    21    22  ar
    25    21    25   1
    26    22    23  ar
    27    23    24  ar
    28    25    26   2
    29    25    27  am
    30     7    28   1
    31     8    29   1
    32    10    30   1
    33    11    31   1
    34    12    32   1
    35    15    33   1
    36    18    34   1
    37    20    35   1
    38    22    36   1
    39    23    37   1
    40    24    38   1
    41    27    39   1
    42    27    40   1
@<TRIPOS>SUBSTRUCTURE
     1  STJ      2

