@<TRIPOS>MOLECULE
3k5v_ligand_015
    40    42
SMALL
GAST_HUCK
****
This file was generated by PARSER (from files_GN.cpp)

@<TRIPOS>ATOM
      1 F1         22.0591   52.4004   60.4412 F           1 STJ      -0.1403
      2 C2         22.6078   52.4950   59.1881 C.3         1 STJ       0.5443
      3 F3         21.9797   51.5618   58.3920 F           1 STJ      -0.1403
      4 F4         22.3358   53.7604   58.7092 F           1 STJ      -0.1403
      5 O5         24.0211   52.2378   59.3225 O.3         1 STJ      -0.2334
      6 C6         24.7469   52.3379   58.1658 C.ar        1 STJ       0.0890
      7 C7         25.3740   53.5549   57.8285 C.ar        1 STJ      -0.0416
      8 C9         26.1478   53.6559   56.6591 C.ar        1 STJ      -0.0462
      9 C11        26.3488   52.5291   55.8308 C.ar        1 STJ       0.0536
     10 C12        25.7051   51.3129   56.1637 C.ar        1 STJ      -0.0462
     11 C14        24.9258   51.2142   57.3309 C.ar        1 STJ      -0.0416
     12 N16        27.0746   52.7062   54.6924 N.pl3       1 STJ      -0.2596
     13 C18        27.9882   51.8866   54.1137 C.ar        1 STJ       0.1450
     14 N19        28.4690   52.3140   52.9179 N.ar        1 STJ      -0.2510
     15 C20        29.4002   51.6223   52.2189 C.ar        1 STJ       0.0700
     16 N22        29.8800   50.4612   52.7250 N.ar        1 STJ      -0.2790
     17 C23        29.4718   49.9517   53.9214 C.ar        1 STJ       0.0556
     18 C24        28.5024   50.6831   54.6533 C.ar        1 STJ       0.0164
     19 C26        30.0452   48.7272   54.3804 C.ar        1 STJ       0.0087
     20 C27        31.3856   48.3902   54.0579 C.ar        1 STJ      -0.0286
     21 C29        31.9899   47.1710   54.4665 C.ar        1 STJ       0.0537
     22 C30        31.1946   46.2723   55.2197 C.ar        1 STJ      -0.0390
     23 C32        29.8673   46.5808   55.5550 C.ar        1 STJ      -0.0524
     24 C34        29.2967   47.7923   55.1345 C.ar        1 STJ      -0.0444
     25 C36        33.3186   46.8714   54.1228 C.2         1 STJ       0.2033
     26 O37        34.0167   47.6729   53.5165 O.2         1 STJ      -0.3848
     27 N38        33.9218   45.7348   54.4065 N.am        1 STJ      -0.3000
     28 H1         25.2606   54.3719   58.4336 H           1 STJ       0.0516
     29 H2         26.5842   54.5540   56.4257 H           1 STJ       0.0512
     30 H3         25.7838   50.4997   55.5499 H           1 STJ       0.0512
     31 H4         24.4749   50.3280   57.5654 H           1 STJ       0.0516
     32 H5         26.9625   53.5695   54.2598 H           1 STJ       0.2132
     33 H6         29.7351   51.9708   51.3199 H           1 STJ       0.1079
     34 H7         28.2146   50.3714   55.5810 H           1 STJ       0.0681
     35 H8         31.9416   49.0605   53.5197 H           1 STJ       0.0707
     36 H9         31.5683   45.3795   55.5444 H           1 STJ       0.0693
     37 H10        29.3078   45.9159   56.0942 H           1 STJ       0.0637
     38 H11        28.3180   47.9737   55.3694 H           1 STJ       0.0687
     39 H12        34.8442   45.6003   54.1348 H           1 STJ       0.1808
     40 H13        33.4570   45.0258   54.8744 H           1 STJ       0.1808
@<TRIPOS>BOND
     1     1     2   1
     2     2     3   1
     3     2     4   1
     4     2     5   1
     5     5     6   1
     6     6     7  ar
     7     6    11  ar
     8     7     8  ar
     9     8     9  ar
    10     9    10  ar
    11     9    12   1
    12    10    11  ar
    13    12    13   1
    14    13    14  ar
    15    13    18  ar
    16    14    15  ar
    17    15    16  ar
    18    16    17  ar
    19    17    18  ar
    20    17    19   1
    21    19    20  ar
    22    19    24  ar
    23    20    21  ar
    24    21    22  ar
    25    21    25   1
    26    22    23  ar
    27    23    24  ar
    28    25    26   2
    29    25    27  am
    30     7    28   1
    31     8    29   1
    32    10    30   1
    33    11    31   1
    34    12    32   1
    35    15    33   1
    36    18    34   1
    37    20    35   1
    38    22    36   1
    39    23    37   1
    40    24    38   1
    41    27    39   1
    42    27    40   1
@<TRIPOS>SUBSTRUCTURE
     1  STJ      2

