@<TRIPOS>MOLECULE
3kgp_ligand_002
    20    20
SMALL
GAST_HUCK
****
This file was generated by PARSER (from files_GN.cpp)

@<TRIPOS>ATOM
      1 C         -30.0594   86.4275   -9.4104 C.2         1 MOL       0.0584
      2 O         -30.1217   86.3416   -8.0622 O.co2       1 MOL      -0.5625
      3 C1        -30.7834   87.4086  -10.1305 C.ar        1 MOL       0.0032
      4 N1        -33.7618   89.8449  -13.5157 N.4         1 MOL       0.2312
      5 C2        -31.6014   88.3506   -9.4581 C.ar        1 MOL      -0.0541
      6 C3        -32.3534   89.3003  -10.1755 C.ar        1 MOL      -0.0515
      7 C4        -32.3222   89.3363  -11.5848 C.ar        1 MOL       0.0041
      8 C5        -31.4785   88.4186  -12.2577 C.ar        1 MOL      -0.0515
      9 C6        -30.7315   87.4647  -11.5432 C.ar        1 MOL      -0.0541
     10 C7        -33.0948   90.3742  -12.3209 C.3         1 MOL      -0.0004
     11 OXT       -29.3032   85.4954  -10.0395 O.co2       1 MOL      -0.5625
     12 H1        -34.3856   90.5491  -13.9187 H           1 MOL       0.2008
     13 H2        -34.3153   89.0196  -13.2735 H           1 MOL       0.2008
     14 H3        -33.0429   89.5956  -14.1971 H           1 MOL       0.2008
     15 H4        -31.6762   88.3495   -8.4350 H           1 MOL       0.0634
     16 H5        -32.9265   89.9691   -9.6540 H           1 MOL       0.0566
     17 H6        -31.4194   88.4191  -13.2788 H           1 MOL       0.0566
     18 H7        -30.1762   86.7887  -12.0701 H           1 MOL       0.0634
     19 H8        -33.8638   90.8271  -11.6907 H           1 MOL       0.0985
     20 H9        -32.4024   91.1592  -12.6270 H           1 MOL       0.0985
@<TRIPOS>BOND
     1     1     2  ar
     2     3     1   1
     3     1    11  ar
     4     5     3  ar
     5     3     9  ar
     6    10     4   1
     7     6     5  ar
     8     7     6  ar
     9     7     8  ar
    10     7    10   1
    11     8     9  ar
    12     4    12   1
    13     4    13   1
    14     4    14   1
    15     5    15   1
    16     6    16   1
    17     8    17   1
    18     9    18   1
    19    10    19   1
    20    10    20   1
@<TRIPOS>SUBSTRUCTURE
     1  MOL      1

