@<TRIPOS>MOLECULE
3kgp_ligand_019
    20    20
SMALL
GAST_HUCK
****
This file was generated by PARSER (from files_GN.cpp)

@<TRIPOS>ATOM
      1 C         -25.7256   85.1343  -19.3970 C.2         1 MOL       0.0584
      2 O         -25.6764   83.8576  -18.9515 O.co2       1 MOL      -0.5625
      3 C1        -25.4797   86.2382  -18.5388 C.ar        1 MOL       0.0032
      4 N1        -24.7551   90.9351  -16.4244 N.4         1 MOL       0.2312
      5 C2        -25.1691   86.0442  -17.1720 C.ar        1 MOL      -0.0541
      6 C3        -24.9257   87.1390  -16.3224 C.ar        1 MOL      -0.0515
      7 C4        -24.9835   88.4651  -16.8076 C.ar        1 MOL       0.0041
      8 C5        -25.2944   88.6611  -18.1736 C.ar        1 MOL      -0.0515
      9 C6        -25.5380   87.5664  -19.0237 C.ar        1 MOL      -0.0541
     10 C7        -24.7180   89.5808  -15.8596 C.3         1 MOL      -0.0004
     11 OXT       -26.0225   85.2993  -20.7068 O.co2       1 MOL      -0.5625
     12 H1        -24.4943   91.6116  -15.7041 H           1 MOL       0.2008
     13 H2        -25.6998   91.1409  -16.7570 H           1 MOL       0.2008
     14 H3        -24.0965   91.0091  -17.2017 H           1 MOL       0.2008
     15 H4        -25.1156   85.1022  -16.7763 H           1 MOL       0.0634
     16 H5        -24.7029   86.9595  -15.3392 H           1 MOL       0.0566
     17 H6        -25.3486   89.6028  -18.5671 H           1 MOL       0.0566
     18 H7        -25.7594   87.7548  -20.0048 H           1 MOL       0.0634
     19 H8        -25.4556   89.5425  -15.0554 H           1 MOL       0.0985
     20 H9        -23.7287   89.4446  -15.4212 H           1 MOL       0.0985
@<TRIPOS>BOND
     1     1     2  ar
     2     3     1   1
     3     1    11  ar
     4     5     3  ar
     5     3     9  ar
     6    10     4   1
     7     6     5  ar
     8     7     6  ar
     9     7     8  ar
    10     7    10   1
    11     8     9  ar
    12     4    12   1
    13     4    13   1
    14     4    14   1
    15     5    15   1
    16     6    16   1
    17     8    17   1
    18     9    18   1
    19    10    19   1
    20    10    20   1
@<TRIPOS>SUBSTRUCTURE
     1  MOL      1

