@<TRIPOS>MOLECULE
3kgp_ligand_023
    20    20
SMALL
GAST_HUCK
****
This file was generated by PARSER (from files_GN.cpp)

@<TRIPOS>ATOM
      1 C         -33.9496   83.7502  -21.5108 C.2         1 MOL       0.0584
      2 O         -34.9218   83.8492  -22.4470 O.co2       1 MOL      -0.5625
      3 C1        -34.1680   83.0873  -20.2748 C.ar        1 MOL       0.0032
      4 N1        -35.4827   81.9395  -15.5600 N.4         1 MOL       0.2312
      5 C2        -33.3407   83.3469  -19.1575 C.ar        1 MOL      -0.0541
      6 C3        -33.5561   82.6919  -17.9300 C.ar        1 MOL      -0.0515
      7 C4        -34.5828   81.7288  -17.7943 C.ar        1 MOL       0.0041
      8 C5        -35.4087   81.4663  -18.9102 C.ar        1 MOL      -0.0515
      9 C6        -35.2147   82.1485  -20.1262 C.ar        1 MOL      -0.0541
     10 C7        -34.8073   81.0376  -16.4978 C.3         1 MOL      -0.0004
     11 OXT       -32.7348   84.2449  -21.8403 O.co2       1 MOL      -0.5625
     12 H1        -35.7314   81.4526  -14.6929 H           1 MOL       0.2008
     13 H2        -36.3502   82.2672  -15.9855 H           1 MOL       0.2008
     14 H3        -34.8793   82.7362  -15.3465 H           1 MOL       0.2008
     15 H4        -32.5813   84.0303  -19.2169 H           1 MOL       0.0634
     16 H5        -32.9444   82.9103  -17.1401 H           1 MOL       0.0566
     17 H6        -36.1710   80.7858  -18.8459 H           1 MOL       0.0566
     18 H7        -35.8368   81.9336  -20.9099 H           1 MOL       0.0634
     19 H8        -35.4317   80.1491  -16.6145 H           1 MOL       0.0985
     20 H9        -33.8562   80.7162  -16.0720 H           1 MOL       0.0985
@<TRIPOS>BOND
     1     1     2  ar
     2     3     1   1
     3     1    11  ar
     4     5     3  ar
     5     3     9  ar
     6    10     4   1
     7     6     5  ar
     8     7     6  ar
     9     7     8  ar
    10     7    10   1
    11     8     9  ar
    12     4    12   1
    13     4    13   1
    14     4    14   1
    15     5    15   1
    16     6    16   1
    17     8    17   1
    18     9    18   1
    19    10    19   1
    20    10    20   1
@<TRIPOS>SUBSTRUCTURE
     1  MOL      1

