@<TRIPOS>MOLECULE
3kgp_ligand_017
    20    20
SMALL
GAST_HUCK
****
This file was generated by PARSER (from files_GN.cpp)

@<TRIPOS>ATOM
      1 C         -27.6750   86.2351  -19.9741 C.2         1 MOL       0.0584
      2 O         -27.0665   85.9341  -21.1393 O.co2       1 MOL      -0.5625
      3 C1        -27.0294   87.0335  -19.0084 C.ar        1 MOL       0.0032
      4 N1        -24.9199   90.8585  -16.4888 N.4         1 MOL       0.2312
      5 C2        -27.7745   87.8004  -18.0817 C.ar        1 MOL      -0.0541
      6 C3        -27.1226   88.6040  -17.1261 C.ar        1 MOL      -0.0515
      7 C4        -25.7117   88.6316  -17.0495 C.ar        1 MOL       0.0041
      8 C5        -24.9672   87.8571  -17.9686 C.ar        1 MOL      -0.0515
      9 C6        -25.6193   87.0821  -18.9458 C.ar        1 MOL      -0.0541
     10 C7        -25.0308   89.4685  -16.0341 C.3         1 MOL      -0.0004
     11 OXT       -28.9370   85.7997  -19.7892 O.co2       1 MOL      -0.5625
     12 H1        -24.4587   91.4124  -15.7604 H           1 MOL       0.2008
     13 H2        -25.8525   91.2428  -16.6589 H           1 MOL       0.2008
     14 H3        -24.3684   90.9214  -17.3480 H           1 MOL       0.2008
     15 H4        -28.7991   87.7971  -18.1064 H           1 MOL       0.0634
     16 H5        -27.6925   89.1670  -16.4874 H           1 MOL       0.0566
     17 H6        -23.9456   87.8524  -17.9396 H           1 MOL       0.0566
     18 H7        -25.0497   86.5341  -19.5990 H           1 MOL       0.0634
     19 H8        -25.5890   89.4571  -15.0977 H           1 MOL       0.0985
     20 H9        -24.0299   89.0900  -15.8206 H           1 MOL       0.0985
@<TRIPOS>BOND
     1     1     2  ar
     2     3     1   1
     3     1    11  ar
     4     5     3  ar
     5     3     9  ar
     6    10     4   1
     7     6     5  ar
     8     7     6  ar
     9     7     8  ar
    10     7    10   1
    11     8     9  ar
    12     4    12   1
    13     4    13   1
    14     4    14   1
    15     5    15   1
    16     6    16   1
    17     8    17   1
    18     9    18   1
    19    10    19   1
    20    10    20   1
@<TRIPOS>SUBSTRUCTURE
     1  MOL      1

