@<TRIPOS>MOLECULE
3kgp_ligand_005
    20    20
SMALL
GAST_HUCK
****
This file was generated by PARSER (from files_GN.cpp)

@<TRIPOS>ATOM
      1 C         -31.0928   84.2140  -16.4473 C.2         1 MOL       0.0584
      2 O         -30.4398   85.3949  -16.6443 O.co2       1 MOL      -0.5625
      3 C1        -32.3775   84.0034  -16.9857 C.ar        1 MOL       0.0032
      4 N1        -37.4609   83.7809  -17.8830 N.4         1 MOL       0.2312
      5 C2        -33.5018   83.9157  -16.1307 C.ar        1 MOL      -0.0541
      6 C3        -34.7898   83.7342  -16.6674 C.ar        1 MOL      -0.0515
      7 C4        -34.9763   83.6092  -18.0695 C.ar        1 MOL       0.0041
      8 C5        -33.8396   83.6482  -18.9118 C.ar        1 MOL      -0.0515
      9 C6        -32.5646   83.8737  -18.3792 C.ar        1 MOL      -0.0541
     10 C7        -36.3108   83.3720  -18.6857 C.3         1 MOL      -0.0004
     11 OXT       -30.4725   83.2402  -15.7312 O.co2       1 MOL      -0.5625
     12 H1        -38.3185   83.6822  -18.4336 H           1 MOL       0.2008
     13 H2        -37.3748   84.7656  -17.6177 H           1 MOL       0.2008
     14 H3        -37.5429   83.1814  -17.0469 H           1 MOL       0.2008
     15 H4        -33.4034   84.0050  -15.1130 H           1 MOL       0.0634
     16 H5        -35.5972   83.6813  -16.0362 H           1 MOL       0.0566
     17 H6        -33.9376   83.5342  -19.9176 H           1 MOL       0.0566
     18 H7        -31.7528   83.9010  -19.0081 H           1 MOL       0.0634
     19 H8        -36.3907   83.9135  -19.6257 H           1 MOL       0.0985
     20 H9        -36.4124   82.3050  -18.8947 H           1 MOL       0.0985
@<TRIPOS>BOND
     1     1     2  ar
     2     3     1   1
     3     1    11  ar
     4     5     3  ar
     5     3     9  ar
     6    10     4   1
     7     6     5  ar
     8     7     6  ar
     9     7     8  ar
    10     7    10   1
    11     8     9  ar
    12     4    12   1
    13     4    13   1
    14     4    14   1
    15     5    15   1
    16     6    16   1
    17     8    17   1
    18     9    18   1
    19    10    19   1
    20    10    20   1
@<TRIPOS>SUBSTRUCTURE
     1  MOL      1

