@<TRIPOS>MOLECULE
3kgp_ligand_000
    20    20
SMALL
GAST_HUCK
****
This file was generated by PARSER (from files_GN.cpp)

@<TRIPOS>ATOM
      1 C         -29.7151   88.7303   -9.2898 C.2         1 MOL       0.0584
      2 O         -28.9668   89.7246   -8.7581 O.co2       1 MOL      -0.5625
      3 C1        -30.6838   89.0155  -10.2702 C.ar        1 MOL       0.0032
      4 N1        -33.5987   91.0769  -13.9552 N.4         1 MOL       0.2312
      5 C2        -30.3646   89.8583  -11.3565 C.ar        1 MOL      -0.0541
      6 C3        -31.3086   90.0951  -12.3679 C.ar        1 MOL      -0.0515
      7 C4        -32.6077   89.5445  -12.2920 C.ar        1 MOL       0.0041
      8 C5        -32.9282   88.7305  -11.1801 C.ar        1 MOL      -0.0515
      9 C6        -31.9824   88.4632  -10.1841 C.ar        1 MOL      -0.0541
     10 C7        -33.5980   89.7299  -13.3758 C.3         1 MOL      -0.0004
     11 OXT       -29.6486   87.4910   -8.7410 O.co2       1 MOL      -0.5625
     12 H1        -34.4338   91.1794  -14.5426 H           1 MOL       0.2008
     13 H2        -32.7523   91.2043  -14.5168 H           1 MOL       0.2008
     14 H3        -33.6312   91.7729  -13.2113 H           1 MOL       0.2008
     15 H4        -29.4275   90.2617  -11.4443 H           1 MOL       0.0634
     16 H5        -31.0371   90.6900  -13.1514 H           1 MOL       0.0566
     17 H6        -33.8575   88.3099  -11.1024 H           1 MOL       0.0566
     18 H7        -32.2423   87.8688   -9.3890 H           1 MOL       0.0634
     19 H8        -33.3904   89.0208  -14.1761 H           1 MOL       0.0985
     20 H9        -34.6118   89.5442  -13.0173 H           1 MOL       0.0985
@<TRIPOS>BOND
     1     1     2  ar
     2     3     1   1
     3     1    11  ar
     4     5     3  ar
     5     3     9  ar
     6    10     4   1
     7     6     5  ar
     8     7     6  ar
     9     7     8  ar
    10     7    10   1
    11     8     9  ar
    12     4    12   1
    13     4    13   1
    14     4    14   1
    15     5    15   1
    16     6    16   1
    17     8    17   1
    18     9    18   1
    19    10    19   1
    20    10    20   1
@<TRIPOS>SUBSTRUCTURE
     1  MOL      1

