@<TRIPOS>MOLECULE
3kgp_ligand_001
    20    20
SMALL
GAST_HUCK
****
This file was generated by PARSER (from files_GN.cpp)

@<TRIPOS>ATOM
      1 C         -31.9522   82.0147  -13.4199 C.2         1 MOL       0.0584
      2 O         -31.2817   83.0992  -12.9649 O.co2       1 MOL      -0.5625
      3 C1        -32.7058   82.0772  -14.6199 C.ar        1 MOL       0.0032
      4 N1        -36.3813   82.7340  -18.0800 N.4         1 MOL       0.2312
      5 C2        -32.7849   80.9713  -15.5019 C.ar        1 MOL      -0.0541
      6 C3        -33.5275   81.0480  -16.6945 C.ar        1 MOL      -0.0515
      7 C4        -34.2178   82.2322  -17.0419 C.ar        1 MOL       0.0041
      8 C5        -34.1283   83.3433  -16.1699 C.ar        1 MOL      -0.0515
      9 C6        -33.3791   83.2660  -14.9807 C.ar        1 MOL      -0.0541
     10 C7        -34.9847   82.3414  -18.3162 C.3         1 MOL      -0.0004
     11 OXT       -31.7291   80.8393  -12.7851 O.co2       1 MOL      -0.5625
     12 H1        -36.8594   82.8631  -18.9729 H           1 MOL       0.2008
     13 H2        -36.4065   83.6123  -17.5658 H           1 MOL       0.2008
     14 H3        -36.8698   82.0213  -17.5377 H           1 MOL       0.2008
     15 H4        -32.2914   80.1030  -15.2844 H           1 MOL       0.0634
     16 H5        -33.5611   80.2347  -17.3191 H           1 MOL       0.0566
     17 H6        -34.6107   84.2176  -16.4028 H           1 MOL       0.0566
     18 H7        -33.3590   84.0810  -14.3663 H           1 MOL       0.0634
     19 H8        -34.5190   83.0949  -18.9548 H           1 MOL       0.0985
     20 H9        -34.9977   81.4028  -18.8753 H           1 MOL       0.0985
@<TRIPOS>BOND
     1     1     2  ar
     2     3     1   1
     3     1    11  ar
     4     5     3  ar
     5     3     9  ar
     6    10     4   1
     7     6     5  ar
     8     7     6  ar
     9     7     8  ar
    10     7    10   1
    11     8     9  ar
    12     4    12   1
    13     4    13   1
    14     4    14   1
    15     5    15   1
    16     6    16   1
    17     8    17   1
    18     9    18   1
    19    10    19   1
    20    10    20   1
@<TRIPOS>SUBSTRUCTURE
     1  MOL      1

