@<TRIPOS>MOLECULE
3kgp_ligand_013
    20    20
SMALL
GAST_HUCK
****
This file was generated by PARSER (from files_GN.cpp)

@<TRIPOS>ATOM
      1 C         -28.8667   88.2715  -13.1004 C.2         1 MOL       0.0584
      2 O         -27.5453   88.5578  -13.0463 O.co2       1 MOL      -0.5625
      3 C1        -29.6420   88.1284  -11.9232 C.ar        1 MOL       0.0032
      4 N1        -32.7460   88.9244   -8.0032 N.4         1 MOL       0.2312
      5 C2        -29.0465   87.7281  -10.7079 C.ar        1 MOL      -0.0541
      6 C3        -29.8246   87.5740   -9.5420 C.ar        1 MOL      -0.0515
      7 C4        -31.2104   87.8386   -9.5585 C.ar        1 MOL       0.0041
      8 C5        -31.8047   88.2469  -10.7753 C.ar        1 MOL      -0.0515
      9 C6        -31.0340   88.3808  -11.9419 C.ar        1 MOL      -0.0541
     10 C7        -32.0416   87.6840   -8.3365 C.3         1 MOL      -0.0004
     11 OXT       -29.4145   88.1484  -14.3320 O.co2       1 MOL      -0.5625
     12 H1        -33.3060   88.7882   -7.1628 H           1 MOL       0.2008
     13 H2        -33.3574   89.1861   -8.7742 H           1 MOL       0.2008
     14 H3        -32.0728   89.6705   -7.8432 H           1 MOL       0.2008
     15 H4        -28.0470   87.5283  -10.6572 H           1 MOL       0.0634
     16 H5        -29.3612   87.2646   -8.6823 H           1 MOL       0.0566
     17 H6        -32.8090   88.4407  -10.8158 H           1 MOL       0.0566
     18 H7        -31.5021   88.6808  -12.7998 H           1 MOL       0.0634
     19 H8        -32.7797   86.9027   -8.4956 H           1 MOL       0.0985
     20 H9        -31.4381   87.3961   -7.4732 H           1 MOL       0.0985
@<TRIPOS>BOND
     1     1     2  ar
     2     3     1   1
     3     1    11  ar
     4     5     3  ar
     5     3     9  ar
     6    10     4   1
     7     6     5  ar
     8     7     6  ar
     9     7     8  ar
    10     7    10   1
    11     8     9  ar
    12     4    12   1
    13     4    13   1
    14     4    14   1
    15     5    15   1
    16     6    16   1
    17     8    17   1
    18     9    18   1
    19    10    19   1
    20    10    20   1
@<TRIPOS>SUBSTRUCTURE
     1  MOL      1

