@<TRIPOS>MOLECULE
3kgp_ligand_012
    20    20
SMALL
GAST_HUCK
****
This file was generated by PARSER (from files_GN.cpp)

@<TRIPOS>ATOM
      1 C         -24.2402   84.8189  -11.1057 C.2         1 MOL       0.0584
      2 O         -24.5289   85.9875  -10.4838 O.co2       1 MOL      -0.5625
      3 C1        -23.6487   83.7529  -10.3873 C.ar        1 MOL       0.0032
      4 N1        -21.0709   81.1577   -6.9767 N.4         1 MOL       0.2312
      5 C2        -22.5383   83.0454  -10.9120 C.ar        1 MOL      -0.0541
      6 C3        -21.9260   82.0187  -10.1670 C.ar        1 MOL      -0.0515
      7 C4        -22.4299   81.6492   -8.9017 C.ar        1 MOL       0.0041
      8 C5        -23.5458   82.3374   -8.3875 C.ar        1 MOL      -0.0515
      9 C6        -24.1394   83.3852   -9.1109 C.ar        1 MOL      -0.0541
     10 C7        -21.7857   80.5661   -8.1136 C.3         1 MOL      -0.0004
     11 OXT       -24.4062   84.7536  -12.4553 O.co2       1 MOL      -0.5625
     12 H1        -20.7500   80.4254   -6.3404 H           1 MOL       0.2008
     13 H2        -21.6994   81.7786   -6.4616 H           1 MOL       0.2008
     14 H3        -20.2684   81.6981   -7.3169 H           1 MOL       0.2008
     15 H4        -22.1481   83.2971  -11.8258 H           1 MOL       0.0634
     16 H5        -21.0995   81.5596  -10.5526 H           1 MOL       0.0566
     17 H6        -23.9312   82.0855   -7.4747 H           1 MOL       0.0566
     18 H7        -24.9539   83.8625   -8.7200 H           1 MOL       0.0634
     19 H8        -22.5340   79.8649   -7.7357 H           1 MOL       0.0985
     20 H9        -21.0682   79.9955   -8.7043 H           1 MOL       0.0985
@<TRIPOS>BOND
     1     1     2  ar
     2     3     1   1
     3     1    11  ar
     4     5     3  ar
     5     3     9  ar
     6    10     4   1
     7     6     5  ar
     8     7     6  ar
     9     7     8  ar
    10     7    10   1
    11     8     9  ar
    12     4    12   1
    13     4    13   1
    14     4    14   1
    15     5    15   1
    16     6    16   1
    17     8    17   1
    18     9    18   1
    19    10    19   1
    20    10    20   1
@<TRIPOS>SUBSTRUCTURE
     1  MOL      1

