@<TRIPOS>MOLECULE
3kgp_ligand_003
    20    20
SMALL
GAST_HUCK
****
This file was generated by PARSER (from files_GN.cpp)

@<TRIPOS>ATOM
      1 C         -24.2855   84.8323   -8.9356 C.2         1 MOL       0.0584
      2 O         -24.0779   85.2469   -7.6532 O.co2       1 MOL      -0.5625
      3 C1        -24.0171   83.4915   -9.3286 C.ar        1 MOL       0.0032
      4 N1        -22.6132   78.5808   -9.5899 N.4         1 MOL       0.2312
      5 C2        -24.8660   82.8292  -10.2423 C.ar        1 MOL      -0.0541
      6 C3        -24.6001   81.5096  -10.6332 C.ar        1 MOL      -0.0515
      7 C4        -23.4615   80.8239  -10.1465 C.ar        1 MOL       0.0041
      8 C5        -22.6064   81.4896   -9.2431 C.ar        1 MOL      -0.0515
      9 C6        -22.8971   82.7958   -8.8153 C.ar        1 MOL      -0.0541
     10 C7        -23.1170   79.4714  -10.6466 C.3         1 MOL      -0.0004
     11 OXT       -24.7135   85.7623   -9.8349 O.co2       1 MOL      -0.5625
     12 H1        -22.4398   77.6438   -9.9824 H           1 MOL       0.2008
     13 H2        -23.2966   78.5004   -8.8261 H           1 MOL       0.2008
     14 H3        -21.7388   78.9491   -9.2157 H           1 MOL       0.2008
     15 H4        -25.6952   83.2998  -10.6165 H           1 MOL       0.0634
     16 H5        -25.2381   81.0651  -11.2999 H           1 MOL       0.0566
     17 H6        -21.7822   81.0206   -8.8670 H           1 MOL       0.0566
     18 H7        -22.2442   83.2627   -8.1726 H           1 MOL       0.0634
     19 H8        -23.9905   78.9687  -11.0942 H           1 MOL       0.0985
     20 H9        -22.3484   79.5528  -11.4174 H           1 MOL       0.0985
@<TRIPOS>BOND
     1     1     2  ar
     2     3     1   1
     3     1    11  ar
     4     5     3  ar
     5     3     9  ar
     6    10     4   1
     7     6     5  ar
     8     7     6  ar
     9     7     8  ar
    10     7    10   1
    11     8     9  ar
    12     4    12   1
    13     4    13   1
    14     4    14   1
    15     5    15   1
    16     6    16   1
    17     8    17   1
    18     9    18   1
    19    10    19   1
    20    10    20   1
@<TRIPOS>SUBSTRUCTURE
     1  MOL      1

