@<TRIPOS>MOLECULE
3kgp_ligand_004
    20    20
SMALL
GAST_HUCK
****
This file was generated by PARSER (from files_GN.cpp)

@<TRIPOS>ATOM
      1 C         -31.3539   79.3906  -14.4340 C.2         1 MOL       0.0584
      2 O         -31.8437   78.4078  -13.6433 O.co2       1 MOL      -0.5625
      3 C1        -32.2321   80.2815  -15.0739 C.ar        1 MOL       0.0032
      4 N1        -36.0280   82.4936  -17.8806 N.4         1 MOL       0.2312
      5 C2        -32.3396   81.6195  -14.6416 C.ar        1 MOL      -0.0541
      6 C3        -33.2708   82.4831  -15.2521 C.ar        1 MOL      -0.0515
      7 C4        -34.0986   82.0424  -16.3114 C.ar        1 MOL       0.0041
      8 C5        -33.9556   80.7044  -16.7527 C.ar        1 MOL      -0.0515
      9 C6        -33.0416   79.8320  -16.1383 C.ar        1 MOL      -0.0541
     10 C7        -35.0590   83.0155  -16.9084 C.3         1 MOL      -0.0004
     11 OXT       -30.1011   79.2504  -14.9359 O.co2       1 MOL      -0.5625
     12 H1        -36.5539   83.2766  -18.2947 H           1 MOL       0.2008
     13 H2        -36.6922   81.8701  -17.4162 H           1 MOL       0.2008
     14 H3        -35.5400   81.9911  -18.6222 H           1 MOL       0.2008
     15 H4        -31.7776   81.9593  -13.8593 H           1 MOL       0.0634
     16 H5        -33.3519   83.4412  -14.8995 H           1 MOL       0.0566
     17 H6        -34.5184   80.3453  -17.5293 H           1 MOL       0.0566
     18 H7        -32.9586   78.8657  -16.4788 H           1 MOL       0.0634
     19 H8        -35.6419   83.4768  -16.1095 H           1 MOL       0.0985
     20 H9        -34.4846   83.7986  -17.4073 H           1 MOL       0.0985
@<TRIPOS>BOND
     1     1     2  ar
     2     3     1   1
     3     1    11  ar
     4     5     3  ar
     5     3     9  ar
     6    10     4   1
     7     6     5  ar
     8     7     6  ar
     9     7     8  ar
    10     7    10   1
    11     8     9  ar
    12     4    12   1
    13     4    13   1
    14     4    14   1
    15     5    15   1
    16     6    16   1
    17     8    17   1
    18     9    18   1
    19    10    19   1
    20    10    20   1
@<TRIPOS>SUBSTRUCTURE
     1  MOL      1

