@<TRIPOS>MOLECULE
3kgp_ligand_008
    20    20
SMALL
GAST_HUCK
****
This file was generated by PARSER (from files_GN.cpp)

@<TRIPOS>ATOM
      1 C         -20.2123   84.5177  -10.3576 C.2         1 MOL       0.0584
      2 O         -19.3886   85.3378   -9.6651 O.co2       1 MOL      -0.5625
      3 C1        -20.4143   83.1647   -9.9770 C.ar        1 MOL       0.0032
      4 N1        -22.1979   78.4138   -9.3368 N.4         1 MOL       0.2312
      5 C2        -20.3771   82.7660   -8.6190 C.ar        1 MOL      -0.0541
      6 C3        -20.5664   81.4189   -8.2532 C.ar        1 MOL      -0.0515
      7 C4        -20.7915   80.4275   -9.2350 C.ar        1 MOL       0.0041
      8 C5        -20.8311   80.8232  -10.5906 C.ar        1 MOL      -0.0515
      9 C6        -20.6538   82.1700  -10.9549 C.ar        1 MOL      -0.0541
     10 C7        -20.9263   78.9912   -8.8785 C.3         1 MOL      -0.0004
     11 OXT       -20.7961   85.0493  -11.4564 O.co2       1 MOL      -0.5625
     12 H1        -22.0995   77.3968   -9.3802 H           1 MOL       0.2008
     13 H2        -22.4234   78.7585  -10.2722 H           1 MOL       0.2008
     14 H3        -22.9566   78.6571   -8.6927 H           1 MOL       0.2008
     15 H4        -20.2114   83.4526   -7.8783 H           1 MOL       0.0634
     16 H5        -20.5261   81.1654   -7.2627 H           1 MOL       0.0566
     17 H6        -20.9790   80.1279  -11.3268 H           1 MOL       0.0566
     18 H7        -20.6849   82.4101  -11.9491 H           1 MOL       0.0634
     19 H8        -20.1109   78.4373   -9.3485 H           1 MOL       0.0985
     20 H9        -20.8555   78.8313   -7.8003 H           1 MOL       0.0985
@<TRIPOS>BOND
     1     1     2  ar
     2     3     1   1
     3     1    11  ar
     4     5     3  ar
     5     3     9  ar
     6    10     4   1
     7     6     5  ar
     8     7     6  ar
     9     7     8  ar
    10     7    10   1
    11     8     9  ar
    12     4    12   1
    13     4    13   1
    14     4    14   1
    15     5    15   1
    16     6    16   1
    17     8    17   1
    18     9    18   1
    19    10    19   1
    20    10    20   1
@<TRIPOS>SUBSTRUCTURE
     1  MOL      1

