@<TRIPOS>MOLECULE
3kgp_ligand_009
    20    20
SMALL
GAST_HUCK
****
This file was generated by PARSER (from files_GN.cpp)

@<TRIPOS>ATOM
      1 C         -23.8623   85.3860   -8.6125 C.2         1 MOL       0.0584
      2 O         -24.1011   86.1288   -7.5026 O.co2       1 MOL      -0.5625
      3 C1        -23.0319   84.2607   -8.5534 C.ar        1 MOL       0.0032
      4 N1        -19.8191   80.6413   -7.0637 N.4         1 MOL       0.2312
      5 C2        -21.6938   84.3436   -8.9989 C.ar        1 MOL      -0.0541
      6 C3        -20.8521   83.2164   -8.9336 C.ar        1 MOL      -0.0515
      7 C4        -21.3296   81.9837   -8.4320 C.ar        1 MOL       0.0041
      8 C5        -22.6702   81.9084   -7.9908 C.ar        1 MOL      -0.0515
      9 C6        -23.5161   83.0344   -8.0515 C.ar        1 MOL      -0.0541
     10 C7        -20.4491   80.7879   -8.3801 C.3         1 MOL      -0.0004
     11 OXT       -24.4603   85.7271   -9.7669 O.co2       1 MOL      -0.5625
     12 H1        -19.1781   79.8391   -7.0863 H           1 MOL       0.2008
     13 H2        -20.5297   80.4738   -6.3501 H           1 MOL       0.2008
     14 H3        -19.2886   81.4836   -6.8349 H           1 MOL       0.2008
     15 H4        -21.3219   85.2258   -9.3661 H           1 MOL       0.0634
     16 H5        -19.8856   83.3072   -9.2550 H           1 MOL       0.0566
     17 H6        -23.0477   81.0282   -7.6250 H           1 MOL       0.0566
     18 H7        -24.4816   82.9521   -7.7298 H           1 MOL       0.0634
     19 H8        -21.0232   79.8838   -8.5933 H           1 MOL       0.0985
     20 H9        -19.6570   80.8549   -9.1292 H           1 MOL       0.0985
@<TRIPOS>BOND
     1     1     2  ar
     2     3     1   1
     3     1    11  ar
     4     5     3  ar
     5     3     9  ar
     6    10     4   1
     7     6     5  ar
     8     7     6  ar
     9     7     8  ar
    10     7    10   1
    11     8     9  ar
    12     4    12   1
    13     4    13   1
    14     4    14   1
    15     5    15   1
    16     6    16   1
    17     8    17   1
    18     9    18   1
    19    10    19   1
    20    10    20   1
@<TRIPOS>SUBSTRUCTURE
     1  MOL      1

