@<TRIPOS>MOLECULE
3kgp_ligand_007
    20    20
SMALL
GAST_HUCK
****
This file was generated by PARSER (from files_GN.cpp)

@<TRIPOS>ATOM
      1 C         -29.3963   85.5311  -15.9860 C.2         1 MOL       0.0584
      2 O         -30.5510   85.3852  -16.6866 O.co2       1 MOL      -0.5625
      3 C1        -28.5504   86.6559  -16.1517 C.ar        1 MOL       0.0032
      4 N1        -25.1323   89.9927  -17.8774 N.4         1 MOL       0.2312
      5 C2        -27.7246   87.1139  -15.0939 C.ar        1 MOL      -0.0541
      6 C3        -26.8864   88.2302  -15.2625 C.ar        1 MOL      -0.0515
      7 C4        -26.8426   88.9220  -16.4969 C.ar        1 MOL       0.0041
      8 C5        -27.6669   88.4713  -17.5517 C.ar        1 MOL      -0.0515
      9 C6        -28.5042   87.3567  -17.3798 C.ar        1 MOL      -0.0541
     10 C7        -25.9761   90.1090  -16.6801 C.3         1 MOL      -0.0004
     11 OXT       -29.0745   84.5142  -15.1494 O.co2       1 MOL      -0.5625
     12 H1        -24.5060   90.8068  -17.9293 H           1 MOL       0.2008
     13 H2        -25.7140   89.9670  -18.7162 H           1 MOL       0.2008
     14 H3        -24.5706   89.1359  -17.8232 H           1 MOL       0.2008
     15 H4        -27.7377   86.6432  -14.1858 H           1 MOL       0.0634
     16 H5        -26.3189   88.5511  -14.4709 H           1 MOL       0.0566
     17 H6        -27.6576   88.9519  -18.4508 H           1 MOL       0.0566
     18 H7        -29.0670   87.0466  -18.1774 H           1 MOL       0.0634
     19 H8        -26.6060   90.9981  -16.7826 H           1 MOL       0.0985
     20 H9        -25.3159   90.2620  -15.8248 H           1 MOL       0.0985
@<TRIPOS>BOND
     1     1     2  ar
     2     3     1   1
     3     1    11  ar
     4     5     3  ar
     5     3     9  ar
     6    10     4   1
     7     6     5  ar
     8     7     6  ar
     9     7     8  ar
    10     7    10   1
    11     8     9  ar
    12     4    12   1
    13     4    13   1
    14     4    14   1
    15     5    15   1
    16     6    16   1
    17     8    17   1
    18     9    18   1
    19    10    19   1
    20    10    20   1
@<TRIPOS>SUBSTRUCTURE
     1  MOL      1

