@<TRIPOS>MOLECULE
3kgp_ligand_018
    20    20
SMALL
GAST_HUCK
****
This file was generated by PARSER (from files_GN.cpp)

@<TRIPOS>ATOM
      1 C         -21.0600   85.5543  -18.0951 C.2         1 MOL       0.0584
      2 O         -19.8040   85.9419  -18.4174 O.co2       1 MOL      -0.5625
      3 C1        -22.1359   86.4776  -18.0115 C.ar        1 MOL       0.0032
      4 N1        -25.0916   90.4187  -16.8705 N.4         1 MOL       0.2312
      5 C2        -23.3983   86.0707  -17.5187 C.ar        1 MOL      -0.0541
      6 C3        -24.4678   86.9794  -17.4322 C.ar        1 MOL      -0.0515
      7 C4        -24.3089   88.3192  -17.8316 C.ar        1 MOL       0.0041
      8 C5        -23.0515   88.7358  -18.3203 C.ar        1 MOL      -0.0515
      9 C6        -21.9776   87.8257  -18.4110 C.ar        1 MOL      -0.0541
     10 C7        -25.4354   89.2847  -17.7346 C.3         1 MOL      -0.0004
     11 OXT       -21.2369   84.2308  -17.8657 O.co2       1 MOL      -0.5625
     12 H1        -25.9099   91.0265  -16.7687 H           1 MOL       0.2008
     13 H2        -24.3244   90.9514  -17.2850 H           1 MOL       0.2008
     14 H3        -24.8105   90.0767  -15.9466 H           1 MOL       0.2008
     15 H4        -23.5544   85.1080  -17.2011 H           1 MOL       0.0634
     16 H5        -25.3648   86.6522  -17.0655 H           1 MOL       0.0566
     17 H6        -22.9087   89.7057  -18.6111 H           1 MOL       0.0566
     18 H7        -21.0802   88.1624  -18.7663 H           1 MOL       0.0634
     19 H8        -25.6810   89.6597  -18.7293 H           1 MOL       0.0985
     20 H9        -26.3311   88.8140  -17.3250 H           1 MOL       0.0985
@<TRIPOS>BOND
     1     1     2  ar
     2     3     1   1
     3     1    11  ar
     4     5     3  ar
     5     3     9  ar
     6    10     4   1
     7     6     5  ar
     8     7     6  ar
     9     7     8  ar
    10     7    10   1
    11     8     9  ar
    12     4    12   1
    13     4    13   1
    14     4    14   1
    15     5    15   1
    16     6    16   1
    17     8    17   1
    18     9    18   1
    19    10    19   1
    20    10    20   1
@<TRIPOS>SUBSTRUCTURE
     1  MOL      1

