@<TRIPOS>MOLECULE
3kv2_ligand_010
    24    23
SMALL
GAST_HUCK
****
This file was generated by PARSER (from files_GN.cpp)

@<TRIPOS>ATOM
      1 N          24.0955  -11.4149   -1.5701 N.4         1 NNH       0.2327
      2 CA         24.8536  -10.5953   -2.5363 C.3         1 NNH       0.0302
      3 C          24.2742  -10.7230   -3.8946 C.2         1 NNH       0.0845
      4 O          23.8223  -11.9008   -4.3822 O.co2       1 NNH      -0.5643
      5 CB         26.3729  -10.9387   -2.4067 C.3         1 NNH       0.0223
      6 CG         27.2835  -10.6588   -3.6391 C.3         1 NNH       0.0355
      7 ND         27.2129  -11.4910   -4.8108 N.pl3       1 NNH      -0.2909
      8 CE         26.6420  -12.7071   -5.0084 C.2         1 NNH       0.1842
      9 NH1        25.9530  -13.3737   -4.0611 N.2         1 NNH      -0.2131
     10 NH2        26.7999  -13.2539   -6.2285 N.pl3       1 NNH      -0.3050
     11 OH1        25.3875  -14.5372   -4.2048 O.3         1 NNH      -0.3179
     12 OXT        24.0908   -9.6223   -4.6571 O.co2       1 NNH      -0.5643
     13 H1         24.4581  -11.2559   -0.6288 H           1 NNH       0.2010
     14 H2         24.1888  -12.4094   -1.7994 H           1 NNH       0.2010
     15 H3         23.1068  -11.1549   -1.5925 H           1 NNH       0.2010
     16 H4         24.7102   -9.5528   -2.2343 H           1 NNH       0.1025
     17 H5         26.5037  -11.9793   -2.1109 H           1 NNH       0.0358
     18 H6         26.7632  -10.3420   -1.5735 H           1 NNH       0.0358
     19 H7         28.3231  -10.6986   -3.3045 H           1 NNH       0.0520
     20 H8         27.0993   -9.6300   -3.9612 H           1 NNH       0.0520
     21 H9         27.6981  -11.1445   -5.5774 H           1 NNH       0.1821
     22 H10        26.4238  -14.1267   -6.4258 H           1 NNH       0.1785
     23 H11        27.3039  -12.7817   -6.9126 H           1 NNH       0.1785
     24 H12        24.9048  -14.6717   -3.3565 H           1 NNH       0.2457
@<TRIPOS>BOND
     1     1     2   1
     2     2     3   1
     3     2     5   1
     4     3     4  ar
     5     3    12  ar
     6     5     6   1
     7     6     7   1
     8     7     8   1
     9     8     9   2
    10     8    10   1
    11     9    11   1
    12     1    13   1
    13     1    14   1
    14     1    15   1
    15     2    16   1
    16     5    17   1
    17     5    18   1
    18     6    19   1
    19     6    20   1
    20     7    21   1
    21    10    22   1
    22    10    23   1
    23    11    24   1
@<TRIPOS>SUBSTRUCTURE
     1  NNH      2

