@<TRIPOS>MOLECULE
3kv2_ligand_012
    24    23
SMALL
GAST_HUCK
****
This file was generated by PARSER (from files_GN.cpp)

@<TRIPOS>ATOM
      1 N          27.4380   -7.0758   -5.2221 N.4         1 NNH       0.2327
      2 CA         25.9964   -7.3929   -5.3037 C.3         1 NNH       0.0302
      3 C          25.2306   -6.2587   -4.7483 C.2         1 NNH       0.0845
      4 O          25.7545   -5.4744   -3.7757 O.co2       1 NNH      -0.5643
      5 CB         25.7598   -8.7515   -4.5794 C.3         1 NNH       0.0223
      6 CG         24.3670   -8.9369   -3.9349 C.3         1 NNH       0.0355
      7 ND         24.5049   -9.8166   -2.8151 N.pl3       1 NNH      -0.2909
      8 CE         24.3502  -11.1600   -2.8039 C.2         1 NNH       0.1842
      9 NH1        24.0378  -11.8516   -3.9157 N.2         1 NNH      -0.2131
     10 NH2        24.5181  -11.7732   -1.6196 N.pl3       1 NNH      -0.3050
     11 OH1        23.9390  -13.1442   -4.0001 O.3         1 NNH      -0.3179
     12 OXT        23.9043   -6.1732   -4.9843 O.co2       1 NNH      -0.5643
     13 H1         27.9703   -7.7840   -5.7305 H           1 NNH       0.2010
     14 H2         27.7196   -7.0829   -4.2347 H           1 NNH       0.2010
     15 H3         27.6223   -6.1555   -5.6278 H           1 NNH       0.2010
     16 H4         25.7478   -7.4982   -6.3793 H           1 NNH       0.1025
     17 H5         26.5479   -8.8863   -3.8264 H           1 NNH       0.0358
     18 H6         25.8842   -9.5448   -5.3422 H           1 NNH       0.0358
     19 H7         23.6637   -9.3147   -4.6796 H           1 NNH       0.0520
     20 H8         23.9742   -7.9864   -3.5779 H           1 NNH       0.0520
     21 H9         24.8441   -9.4011   -2.0062 H           1 NNH       0.1821
     22 H10        24.4003  -12.7225   -1.5569 H           1 NNH       0.1785
     23 H11        24.7387  -11.2559   -0.8185 H           1 NNH       0.1785
     24 H12        24.7392  -13.5266   -3.5642 H           1 NNH       0.2457
@<TRIPOS>BOND
     1     1     2   1
     2     2     3   1
     3     2     5   1
     4     3     4  ar
     5     3    12  ar
     6     5     6   1
     7     6     7   1
     8     7     8   1
     9     8     9   2
    10     8    10   1
    11     9    11   1
    12     1    13   1
    13     1    14   1
    14     1    15   1
    15     2    16   1
    16     5    17   1
    17     5    18   1
    18     6    19   1
    19     6    20   1
    20     7    21   1
    21    10    22   1
    22    10    23   1
    23    11    24   1
@<TRIPOS>SUBSTRUCTURE
     1  NNH      2

