@<TRIPOS>MOLECULE
3kv2_ligand_013
    24    23
SMALL
GAST_HUCK
****
This file was generated by PARSER (from files_GN.cpp)

@<TRIPOS>ATOM
      1 N          24.1021  -12.3555   -3.1680 N.4         1 NNH       0.2327
      2 CA         25.5283  -12.6757   -3.3164 C.3         1 NNH       0.0302
      3 C          26.2812  -11.8392   -2.3564 C.2         1 NNH       0.0845
      4 O          26.2635  -12.1429   -1.0379 O.co2       1 NNH      -0.5643
      5 CB         25.9899  -12.5195   -4.7967 C.3         1 NNH       0.0223
      6 CG         25.2414  -13.4086   -5.8283 C.3         1 NNH       0.0355
      7 ND         25.6795  -14.7703   -5.8068 N.pl3       1 NNH      -0.2909
      8 CE         25.1015  -15.8029   -5.1540 C.2         1 NNH       0.1842
      9 NH1        23.9811  -15.6561   -4.4187 N.2         1 NNH      -0.2131
     10 NH2        25.7061  -16.9980   -5.2636 N.pl3       1 NNH      -0.3050
     11 OH1        23.4413  -16.6124   -3.7143 O.3         1 NNH      -0.3179
     12 OXT        26.9710  -10.7447   -2.7493 O.co2       1 NNH      -0.5643
     13 H1         23.5492  -12.9884   -3.7502 H           1 NNH       0.2010
     14 H2         23.9263  -11.3904   -3.4560 H           1 NNH       0.2010
     15 H3         23.8229  -12.4786   -2.1924 H           1 NNH       0.2010
     16 H4         25.6656  -13.7181   -3.0279 H           1 NNH       0.1025
     17 H5         27.0572  -12.7499   -4.8613 H           1 NNH       0.0358
     18 H6         25.8614  -11.4756   -5.0961 H           1 NNH       0.0358
     19 H7         25.4596  -13.0312   -6.8317 H           1 NNH       0.0520
     20 H8         24.1603  -13.3300   -5.6942 H           1 NNH       0.0520
     21 H9         26.4896  -14.9710   -6.3027 H           1 NNH       0.1821
     22 H10        25.3517  -17.7809   -4.8162 H           1 NNH       0.1785
     23 H11        26.5332  -17.0824   -5.7601 H           1 NNH       0.1785
     24 H12        22.5447  -16.2801   -3.5021 H           1 NNH       0.2457
@<TRIPOS>BOND
     1     1     2   1
     2     2     3   1
     3     2     5   1
     4     3     4  ar
     5     3    12  ar
     6     5     6   1
     7     6     7   1
     8     7     8   1
     9     8     9   2
    10     8    10   1
    11     9    11   1
    12     1    13   1
    13     1    14   1
    14     1    15   1
    15     2    16   1
    16     5    17   1
    17     5    18   1
    18     6    19   1
    19     6    20   1
    20     7    21   1
    21    10    22   1
    22    10    23   1
    23    11    24   1
@<TRIPOS>SUBSTRUCTURE
     1  NNH      2

