@<TRIPOS>MOLECULE
3kv2_ligand_003
    24    23
SMALL
GAST_HUCK
****
This file was generated by PARSER (from files_GN.cpp)

@<TRIPOS>ATOM
      1 N          25.6730  -16.8236   -5.4493 N.4         1 NNH       0.2327
      2 CA         25.3264  -15.6282   -4.6527 C.3         1 NNH       0.0302
      3 C          23.8665  -15.6821   -4.4057 C.2         1 NNH       0.0845
      4 O          23.3238  -16.7918   -3.8401 O.co2       1 NNH      -0.5643
      5 CB         25.8821  -14.3561   -5.3730 C.3         1 NNH       0.0223
      6 CG         25.3399  -12.9557   -4.9542 C.3         1 NNH       0.0355
      7 ND         25.0249  -12.8313   -3.5646 N.pl3       1 NNH      -0.2909
      8 CE         24.6595  -11.6990   -2.9244 C.2         1 NNH       0.1842
      9 NH1        24.6567  -10.4746   -3.4981 N.2         1 NNH      -0.2131
     10 NH2        24.2841  -11.8631   -1.6430 N.pl3       1 NNH      -0.3050
     11 OH1        24.2106   -9.4164   -2.8769 O.3         1 NNH      -0.3179
     12 OXT        23.0452  -14.6726   -4.7753 O.co2       1 NNH      -0.5643
     13 H1         26.6829  -16.8687   -5.6035 H           1 NNH       0.2010
     14 H2         25.2017  -16.7879   -6.3564 H           1 NNH       0.2010
     15 H3         25.3951  -17.6772   -4.9504 H           1 NNH       0.2010
     16 H4         25.8269  -15.7215   -3.6880 H           1 NNH       0.1025
     17 H5         25.7183  -14.4595   -6.4467 H           1 NNH       0.0358
     18 H6         26.9662  -14.3488   -5.2164 H           1 NNH       0.0358
     19 H7         24.4385  -12.7332   -5.5276 H           1 NNH       0.0520
     20 H8         26.0936  -12.1989   -5.2175 H           1 NNH       0.0520
     21 H9         24.9588  -13.6405   -3.0442 H           1 NNH       0.1821
     22 H10        24.0623  -11.1120   -1.0708 H           1 NNH       0.1785
     23 H11        24.2163  -12.7625   -1.2991 H           1 NNH       0.1785
     24 H12        24.9308   -8.7513   -2.9048 H           1 NNH       0.2457
@<TRIPOS>BOND
     1     1     2   1
     2     2     3   1
     3     2     5   1
     4     3     4  ar
     5     3    12  ar
     6     5     6   1
     7     6     7   1
     8     7     8   1
     9     8     9   2
    10     8    10   1
    11     9    11   1
    12     1    13   1
    13     1    14   1
    14     1    15   1
    15     2    16   1
    16     5    17   1
    17     5    18   1
    18     6    19   1
    19     6    20   1
    20     7    21   1
    21    10    22   1
    22    10    23   1
    23    11    24   1
@<TRIPOS>SUBSTRUCTURE
     1  NNH      2

