@<TRIPOS>MOLECULE
3kv2_ligand_011
    24    23
SMALL
GAST_HUCK
****
This file was generated by PARSER (from files_GN.cpp)

@<TRIPOS>ATOM
      1 N          24.1536  -11.6683   -1.6745 N.4         1 NNH       0.2327
      2 CA         25.1031  -11.7561   -2.7993 C.3         1 NNH       0.0302
      3 C          25.5257  -10.3971   -3.1781 C.2         1 NNH       0.0845
      4 O          24.6764   -9.5586   -3.8062 O.co2       1 NNH      -0.5643
      5 CB         24.4911  -12.5496   -4.0094 C.3         1 NNH       0.0223
      6 CG         24.9643  -14.0265   -4.1903 C.3         1 NNH       0.0355
      7 ND         23.8721  -14.9514   -4.2215 N.pl3       1 NNH      -0.2909
      8 CE         23.8986  -16.1927   -4.7637 C.2         1 NNH       0.1842
      9 NH1        24.9866  -16.6757   -5.4011 N.2         1 NNH      -0.2131
     10 NH2        22.7792  -16.9354   -4.6536 N.pl3       1 NNH      -0.3050
     11 OH1        25.0512  -17.8504   -5.9632 O.3         1 NNH      -0.3179
     12 OXT        26.8004   -9.9990   -2.9836 O.co2       1 NNH      -0.5643
     13 H1         23.9072  -12.6072   -1.3753 H           1 NNH       0.2010
     14 H2         23.3042  -11.1827   -1.9508 H           1 NNH       0.2010
     15 H3         24.5684  -11.1722   -0.8816 H           1 NNH       0.2010
     16 H4         25.9821  -12.2803   -2.4178 H           1 NNH       0.1025
     17 H5         24.7237  -12.0322   -4.9407 H           1 NNH       0.0358
     18 H6         23.4021  -12.5118   -3.9361 H           1 NNH       0.0358
     19 H7         25.6362  -14.3365   -3.3894 H           1 NNH       0.0520
     20 H8         25.5265  -14.0891   -5.1255 H           1 NNH       0.0520
     21 H9         23.0460  -14.6880   -3.7881 H           1 NNH       0.1821
     22 H10        22.7385  -17.8158   -5.0696 H           1 NNH       0.1785
     23 H11        22.0039  -16.5706   -4.1898 H           1 NNH       0.1785
     24 H12        25.4755  -18.4235   -5.2913 H           1 NNH       0.2457
@<TRIPOS>BOND
     1     1     2   1
     2     2     3   1
     3     2     5   1
     4     3     4  ar
     5     3    12  ar
     6     5     6   1
     7     6     7   1
     8     7     8   1
     9     8     9   2
    10     8    10   1
    11     9    11   1
    12     1    13   1
    13     1    14   1
    14     1    15   1
    15     2    16   1
    16     5    17   1
    17     5    18   1
    18     6    19   1
    19     6    20   1
    20     7    21   1
    21    10    22   1
    22    10    23   1
    23    11    24   1
@<TRIPOS>SUBSTRUCTURE
     1  NNH      2

