@<TRIPOS>MOLECULE
3kv2_ligand_018
    24    23
SMALL
GAST_HUCK
****
This file was generated by PARSER (from files_GN.cpp)

@<TRIPOS>ATOM
      1 N          23.7761  -11.5066   -1.5068 N.4         1 NNH       0.2327
      2 CA         24.7103  -11.3432   -2.6316 C.3         1 NNH       0.0302
      3 C          25.9365  -12.1188   -2.3548 C.2         1 NNH       0.0845
      4 O          26.2207  -12.5912   -1.1183 O.co2       1 NNH      -0.5643
      5 CB         25.0319   -9.8414   -2.9427 C.3         1 NNH       0.0223
      6 CG         24.4530   -9.3284   -4.2920 C.3         1 NNH       0.0355
      7 ND         25.1142   -8.1246   -4.6973 N.pl3       1 NNH      -0.2909
      8 CE         25.4808   -7.7905   -5.9577 C.2         1 NNH       0.1842
      9 NH1        25.1629   -8.5512   -7.0275 N.2         1 NNH      -0.2131
     10 NH2        26.1893   -6.6598   -6.1192 N.pl3       1 NNH      -0.3050
     11 OH1        25.5061   -8.2681   -8.2537 O.3         1 NNH      -0.3179
     12 OXT        26.8785  -12.2211   -3.3175 O.co2       1 NNH      -0.5643
     13 H1         22.8978  -11.0234   -1.6878 H           1 NNH       0.2010
     14 H2         24.1916  -11.1450   -0.6461 H           1 NNH       0.2010
     15 H3         23.5869  -12.5052   -1.3949 H           1 NNH       0.2010
     16 H4         24.2287  -11.8168   -3.4902 H           1 NNH       0.1025
     17 H5         26.1140   -9.6774   -2.9661 H           1 NNH       0.0358
     18 H6         24.6592   -9.2101   -2.1352 H           1 NNH       0.0358
     19 H7         23.3856   -9.1234   -4.1783 H           1 NNH       0.0520
     20 H8         24.5758  -10.1014   -5.0543 H           1 NNH       0.0520
     21 H9         25.3842   -7.5236   -3.9860 H           1 NNH       0.1821
     22 H10        26.4844   -6.3924   -7.0043 H           1 NNH       0.1785
     23 H11        26.4268   -6.1178   -5.3501 H           1 NNH       0.1785
     24 H12        24.9848   -8.8861   -8.8078 H           1 NNH       0.2457
@<TRIPOS>BOND
     1     1     2   1
     2     2     3   1
     3     2     5   1
     4     3     4  ar
     5     3    12  ar
     6     5     6   1
     7     6     7   1
     8     7     8   1
     9     8     9   2
    10     8    10   1
    11     9    11   1
    12     1    13   1
    13     1    14   1
    14     1    15   1
    15     2    16   1
    16     5    17   1
    17     5    18   1
    18     6    19   1
    19     6    20   1
    20     7    21   1
    21    10    22   1
    22    10    23   1
    23    11    24   1
@<TRIPOS>SUBSTRUCTURE
     1  NNH      2

