@<TRIPOS>MOLECULE
3kv2_ligand_017
    24    23
SMALL
GAST_HUCK
****
This file was generated by PARSER (from files_GN.cpp)

@<TRIPOS>ATOM
      1 N          26.9379  -13.4793   -5.9166 N.4         1 NNH       0.2327
      2 CA         26.6530  -12.0377   -6.0165 C.3         1 NNH       0.0302
      3 C          27.4267  -11.3180   -4.9873 C.2         1 NNH       0.0845
      4 O          28.7345  -11.0038   -5.2150 O.co2       1 NNH      -0.5643
      5 CB         25.1171  -11.7088   -6.0191 C.3         1 NNH       0.0223
      6 CG         24.1741  -12.5962   -5.1575 C.3         1 NNH       0.0355
      7 ND         24.3645  -12.5685   -3.7409 N.pl3       1 NNH      -0.2909
      8 CE         24.2560  -11.4926   -2.9338 C.2         1 NNH       0.1842
      9 NH1        24.1037  -10.2432   -3.4255 N.2         1 NNH      -0.2131
     10 NH2        24.3005  -11.7414   -1.6100 N.pl3       1 NNH      -0.3050
     11 OH1        23.9626   -9.1945   -2.6539 O.3         1 NNH      -0.3179
     12 OXT        26.9562  -11.1740   -3.7188 O.co2       1 NNH      -0.5643
     13 H1         26.4171  -13.9829   -6.6387 H           1 NNH       0.2010
     14 H2         26.6685  -13.8285   -4.9944 H           1 NNH       0.2010
     15 H3         27.9395  -13.6345   -6.0621 H           1 NNH       0.2010
     16 H4         27.0511  -11.7268   -6.9937 H           1 NNH       0.1025
     17 H5         24.7718  -11.8152   -7.0562 H           1 NNH       0.0358
     18 H6         24.9741  -10.6534   -5.7503 H           1 NNH       0.0358
     19 H7         24.2992  -13.6355   -5.4727 H           1 NNH       0.0520
     20 H8         23.1417  -12.3087   -5.3760 H           1 NNH       0.0520
     21 H9         24.4652  -13.4230   -3.2917 H           1 NNH       0.1821
     22 H10        24.2482  -11.0350   -0.9467 H           1 NNH       0.1785
     23 H11        24.3626  -12.6664   -1.3169 H           1 NNH       0.1785
     24 H12        24.7962   -8.6799   -2.7724 H           1 NNH       0.2457
@<TRIPOS>BOND
     1     1     2   1
     2     2     3   1
     3     2     5   1
     4     3     4  ar
     5     3    12  ar
     6     5     6   1
     7     6     7   1
     8     7     8   1
     9     8     9   2
    10     8    10   1
    11     9    11   1
    12     1    13   1
    13     1    14   1
    14     1    15   1
    15     2    16   1
    16     5    17   1
    17     5    18   1
    18     6    19   1
    19     6    20   1
    20     7    21   1
    21    10    22   1
    22    10    23   1
    23    11    24   1
@<TRIPOS>SUBSTRUCTURE
     1  NNH      2

