@<TRIPOS>MOLECULE
3kv2_ligand_016
    24    23
SMALL
GAST_HUCK
****
This file was generated by PARSER (from files_GN.cpp)

@<TRIPOS>ATOM
      1 N          23.8100  -11.5445   -1.5352 N.4         1 NNH       0.2327
      2 CA         24.7208  -11.2523   -2.6510 C.3         1 NNH       0.0302
      3 C          25.9089  -12.1147   -2.5348 C.2         1 NNH       0.0845
      4 O          26.6698  -12.3217   -3.6270 O.co2       1 NNH      -0.5643
      5 CB         25.0658   -9.7280   -2.7143 C.3         1 NNH       0.0223
      6 CG         24.3047   -8.8772   -3.7783 C.3         1 NNH       0.0355
      7 ND         23.0856   -9.4710   -4.2357 N.pl3       1 NNH      -0.2909
      8 CE         22.9071  -10.1262   -5.4076 C.2         1 NNH       0.1842
      9 NH1        23.8691  -10.2061   -6.3499 N.2         1 NNH      -0.2131
     10 NH2        21.7187  -10.7177   -5.6060 N.pl3       1 NNH      -0.3050
     11 OH1        23.7589  -10.8258   -7.4960 O.3         1 NNH      -0.3179
     12 OXT        26.4640  -12.3361   -1.3184 O.co2       1 NNH      -0.5643
     13 H1         22.9222  -11.0588   -1.6641 H           1 NNH       0.2010
     14 H2         24.2354  -11.2432   -0.6567 H           1 NNH       0.2010
     15 H3         23.6350  -12.5532   -1.4970 H           1 NNH       0.2010
     16 H4         24.1989  -11.5822   -3.5547 H           1 NNH       0.1025
     17 H5         26.1373   -9.5909   -2.8974 H           1 NNH       0.0358
     18 H6         24.8835   -9.2930   -1.7322 H           1 NNH       0.0358
     19 H7         24.9837   -8.6884   -4.6181 H           1 NNH       0.0520
     20 H8         24.0543   -7.9033   -3.3574 H           1 NNH       0.0520
     21 H9         22.3395   -9.4710   -3.6093 H           1 NNH       0.1821
     22 H10        21.5592  -11.2139   -6.4194 H           1 NNH       0.1785
     23 H11        21.0186  -10.6464   -4.9411 H           1 NNH       0.1785
     24 H12        23.6258  -11.7684   -7.2693 H           1 NNH       0.2457
@<TRIPOS>BOND
     1     1     2   1
     2     2     3   1
     3     2     5   1
     4     3     4  ar
     5     3    12  ar
     6     5     6   1
     7     6     7   1
     8     7     8   1
     9     8     9   2
    10     8    10   1
    11     9    11   1
    12     1    13   1
    13     1    14   1
    14     1    15   1
    15     2    16   1
    16     5    17   1
    17     5    18   1
    18     6    19   1
    19     6    20   1
    20     7    21   1
    21    10    22   1
    22    10    23   1
    23    11    24   1
@<TRIPOS>SUBSTRUCTURE
     1  NNH      2

