@<TRIPOS>MOLECULE
3kv2_ligand_004
    24    23
SMALL
GAST_HUCK
****
This file was generated by PARSER (from files_GN.cpp)

@<TRIPOS>ATOM
      1 N          26.7156  -11.9150   -6.6846 N.4         1 NNH       0.2327
      2 CA         25.3479  -12.4537   -6.8047 C.3         1 NNH       0.0302
      3 C          24.6218  -11.6104   -7.7900 C.2         1 NNH       0.0845
      4 O          23.7619  -10.6315   -7.4156 O.co2       1 NNH      -0.5643
      5 CB         24.6502  -12.5322   -5.4110 C.3         1 NNH       0.0223
      6 CG         25.0329  -13.7686   -4.5414 C.3         1 NNH       0.0355
      7 ND         23.9595  -14.7226   -4.4681 N.pl3       1 NNH      -0.2909
      8 CE         23.9620  -16.0018   -4.9125 C.2         1 NNH       0.1842
      9 NH1        25.0209  -16.5520   -5.5358 N.2         1 NNH      -0.2131
     10 NH2        22.8481  -16.7294   -4.7021 N.pl3       1 NNH      -0.3050
     11 OH1        25.0622  -17.7762   -5.9852 O.3         1 NNH      -0.3179
     12 OXT        24.7013  -11.9001   -9.1109 O.co2       1 NNH      -0.5643
     13 H1         27.2564  -12.4830   -6.0304 H           1 NNH       0.2010
     14 H2         26.6770  -10.9507   -6.3394 H           1 NNH       0.2010
     15 H3         27.1770  -11.9228   -7.5978 H           1 NNH       0.2010
     16 H4         25.4228  -13.4629   -7.2191 H           1 NNH       0.1025
     17 H5         23.5651  -12.5297   -5.5374 H           1 NNH       0.0358
     18 H6         24.8937  -11.6198   -4.8575 H           1 NNH       0.0358
     19 H7         25.2165  -13.4366   -3.5142 H           1 NNH       0.0520
     20 H8         25.9653  -14.2149   -4.9022 H           1 NNH       0.0520
     21 H9         23.1430  -14.4142   -4.0435 H           1 NNH       0.1821
     22 H10        22.7875  -17.6344   -5.0457 H           1 NNH       0.1785
     23 H11        22.0862  -16.3420   -4.2439 H           1 NNH       0.1785
     24 H12        25.4106  -18.3001   -5.2345 H           1 NNH       0.2457
@<TRIPOS>BOND
     1     1     2   1
     2     2     3   1
     3     2     5   1
     4     3     4  ar
     5     3    12  ar
     6     5     6   1
     7     6     7   1
     8     7     8   1
     9     8     9   2
    10     8    10   1
    11     9    11   1
    12     1    13   1
    13     1    14   1
    14     1    15   1
    15     2    16   1
    16     5    17   1
    17     5    18   1
    18     6    19   1
    19     6    20   1
    20     7    21   1
    21    10    22   1
    22    10    23   1
    23    11    24   1
@<TRIPOS>SUBSTRUCTURE
     1  NNH      2

