@<TRIPOS>MOLECULE
3kwa_ligand_013
    44    43
SMALL
GAST_HUCK
****
This file was generated by PARSER (from files_GN.cpp)

@<TRIPOS>ATOM
      1 N1          0.0431    5.4806   12.6047 N.4         1 SPM       0.2187
      2 C2         -1.2062    4.7071   12.6259 C.3         1 SPM      -0.0305
      3 C3         -2.3189    5.3258   11.7422 C.3         1 SPM       0.0275
      4 C4         -2.3906    4.7908   10.2883 C.3         1 SPM      -0.0288
      5 N5         -3.1062    3.5057   10.0779 N.4         1 SPM       0.2271
      6 C6         -4.2913    3.1823   10.9205 C.3         1 SPM      -0.0335
      7 C7         -3.8789    2.3889   12.1864 C.3         1 SPM      -0.0078
      8 C8         -5.0249    1.5930   12.8692 C.3         1 SPM      -0.0078
      9 C9         -4.4924    0.5760   13.9266 C.3         1 SPM      -0.0335
     10 N10        -4.2796   -0.8125   13.4474 N.4         1 SPM       0.2271
     11 C11        -3.6428   -1.0141   12.1220 C.3         1 SPM      -0.0288
     12 C12        -3.3691   -2.5117   11.8316 C.3         1 SPM       0.0275
     13 C13        -4.6328   -3.3211   11.4524 C.3         1 SPM      -0.0305
     14 N14        -4.2709   -4.6929   11.0790 N.4         1 SPM       0.2187
     15 H1          0.7192    5.0328   13.2254 H           1 SPM       0.1994
     16 H2         -0.1369    6.4354   12.9350 H           1 SPM       0.1994
     17 H3          0.4191    5.5143   11.6520 H           1 SPM       0.1994
     18 H4         -1.5470    4.6748   13.6623 H           1 SPM       0.0815
     19 H5         -0.9813    3.6826   12.3152 H           1 SPM       0.0815
     20 H6         -2.1671    6.4115   11.7058 H           1 SPM       0.0369
     21 H7         -3.2827    5.1529   12.2240 H           1 SPM       0.0369
     22 H8         -1.3737    4.6660    9.9098 H           1 SPM       0.0816
     23 H9         -2.8719    5.5509    9.6656 H           1 SPM       0.0816
     24 H10        -2.4363    2.7359   10.1519 H           1 SPM       0.2013
     25 H11        -3.4355    3.5252    9.1077 H           1 SPM       0.2013
     26 H12        -4.9507    2.5493   10.3124 H           1 SPM       0.0814
     27 H13        -4.8517    4.0863   11.1823 H           1 SPM       0.0814
     28 H14        -3.4773    3.0917   12.9257 H           1 SPM       0.0319
     29 H15        -3.0825    1.6902   11.8965 H           1 SPM       0.0319
     30 H16        -5.6279    1.0652   12.1262 H           1 SPM       0.0319
     31 H17        -5.6867    2.3151   13.3685 H           1 SPM       0.0319
     32 H18        -5.2272    0.5093   14.7374 H           1 SPM       0.0814
     33 H19        -3.5661    0.9372   14.3793 H           1 SPM       0.0814
     34 H20        -5.1832   -1.2896   13.4339 H           1 SPM       0.2013
     35 H21        -3.6941   -1.2777   14.1498 H           1 SPM       0.2013
     36 H22        -2.6974   -0.4628   12.0957 H           1 SPM       0.0816
     37 H23        -4.2891   -0.6169   11.3349 H           1 SPM       0.0816
     38 H24        -2.9049   -2.9636   12.7134 H           1 SPM       0.0369
     39 H25        -2.6534   -2.5709   11.0043 H           1 SPM       0.0369
     40 H26        -5.1397   -2.8489   10.6093 H           1 SPM       0.0815
     41 H27        -5.3328   -3.3591   12.2904 H           1 SPM       0.0815
     42 H28        -5.1310   -5.2036   10.8519 H           1 SPM       0.1994
     43 H29        -3.7883   -5.1610   11.8575 H           1 SPM       0.1994
     44 H30        -3.6554   -4.6582   10.2581 H           1 SPM       0.1994
@<TRIPOS>BOND
     1     1     2   1
     2     2     3   1
     3     3     4   1
     4     4     5   1
     5     5     6   1
     6     6     7   1
     7     7     8   1
     8     8     9   1
     9     9    10   1
    10    10    11   1
    11    11    12   1
    12    12    13   1
    13    13    14   1
    14     1    15   1
    15     1    16   1
    16     1    17   1
    17     2    18   1
    18     2    19   1
    19     3    20   1
    20     3    21   1
    21     4    22   1
    22     4    23   1
    23     5    24   1
    24     5    25   1
    25     6    26   1
    26     6    27   1
    27     7    28   1
    28     7    29   1
    29     8    30   1
    30     8    31   1
    31     9    32   1
    32     9    33   1
    33    10    34   1
    34    10    35   1
    35    11    36   1
    36    11    37   1
    37    12    38   1
    38    12    39   1
    39    13    40   1
    40    13    41   1
    41    14    42   1
    42    14    43   1
    43    14    44   1
@<TRIPOS>SUBSTRUCTURE
     1  SPM      2

