@<TRIPOS>MOLECULE
3kwa_ligand_047
    44    43
SMALL
GAST_HUCK
****
This file was generated by PARSER (from files_GN.cpp)

@<TRIPOS>ATOM
      1 N1         -7.0465    6.9658   14.3241 N.4         1 SPM       0.2187
      2 C2         -7.1772    5.6528   13.6900 C.3         1 SPM      -0.0305
      3 C3         -6.4709    4.5263   14.4825 C.3         1 SPM       0.0275
      4 C4         -5.1247    4.9554   15.1388 C.3         1 SPM      -0.0288
      5 N5         -4.1979    3.8252   15.4406 N.4         1 SPM       0.2271
      6 C6         -4.5194    2.8785   16.5505 C.3         1 SPM      -0.0335
      7 C7         -5.7781    1.9845   16.3220 C.3         1 SPM      -0.0078
      8 C8         -5.5321    0.4439   16.3116 C.3         1 SPM      -0.0078
      9 C9         -4.3893   -0.0941   15.3973 C.3         1 SPM      -0.0335
     10 N10        -4.2256    0.6946   14.1482 N.4         1 SPM       0.2271
     11 C11        -4.2615   -0.0392   12.8623 C.3         1 SPM      -0.0288
     12 C12        -4.7765    0.8670   11.7118 C.3         1 SPM       0.0275
     13 C13        -4.1673    2.2983   11.7211 C.3         1 SPM      -0.0305
     14 N14        -3.9468    2.8184   10.3606 N.4         1 SPM       0.2187
     15 H1         -7.6124    7.6484   13.8123 H           1 SPM       0.1994
     16 H2         -6.0663    7.2523   14.3051 H           1 SPM       0.1994
     17 H3         -7.3628    6.9249   15.2921 H           1 SPM       0.1994
     18 H4         -6.7582    5.7139   12.6843 H           1 SPM       0.0815
     19 H5         -8.2382    5.4226   13.6162 H           1 SPM       0.0815
     20 H6         -6.2805    3.7000   13.7855 H           1 SPM       0.0369
     21 H7         -7.1462    4.1773   15.2731 H           1 SPM       0.0369
     22 H8         -5.3257    5.5304   16.0532 H           1 SPM       0.0816
     23 H9         -4.5787    5.6116   14.4461 H           1 SPM       0.0816
     24 H10        -3.2956    4.2464   15.6911 H           1 SPM       0.2013
     25 H11        -4.0500    3.2925   14.5782 H           1 SPM       0.2013
     26 H12        -4.6504    3.4364   17.4924 H           1 SPM       0.0814
     27 H13        -3.6438    2.2230   16.6690 H           1 SPM       0.0814
     28 H14        -6.2855    2.2361   15.3852 H           1 SPM       0.0319
     29 H15        -6.5005    2.1755   17.1261 H           1 SPM       0.0319
     30 H16        -6.4687   -0.0400   16.0159 H           1 SPM       0.0319
     31 H17        -5.3220    0.1162   17.3347 H           1 SPM       0.0319
     32 H18        -4.5886   -1.1579   15.1787 H           1 SPM       0.0814
     33 H19        -3.4405   -0.0254   15.9471 H           1 SPM       0.0814
     34 H20        -3.2964    1.1325   14.2065 H           1 SPM       0.2013
     35 H21        -4.9401    1.4286   14.1057 H           1 SPM       0.2013
     36 H22        -4.9294   -0.9071   12.9360 H           1 SPM       0.0816
     37 H23        -3.2571   -0.3942   12.6161 H           1 SPM       0.0816
     38 H24        -5.8651    0.9527   11.7887 H           1 SPM       0.0369
     39 H25        -4.5447    0.3765   10.7564 H           1 SPM       0.0369
     40 H26        -3.1921    2.2878   12.2317 H           1 SPM       0.0815
     41 H27        -4.8386    2.9831   12.2557 H           1 SPM       0.0815
     42 H28        -3.6481    3.7990   10.4147 H           1 SPM       0.1994
     43 H29        -4.8075    2.7552    9.7958 H           1 SPM       0.1994
     44 H30        -3.1963    2.2608    9.9370 H           1 SPM       0.1994
@<TRIPOS>BOND
     1     1     2   1
     2     2     3   1
     3     3     4   1
     4     4     5   1
     5     5     6   1
     6     6     7   1
     7     7     8   1
     8     8     9   1
     9     9    10   1
    10    10    11   1
    11    11    12   1
    12    12    13   1
    13    13    14   1
    14     1    15   1
    15     1    16   1
    16     1    17   1
    17     2    18   1
    18     2    19   1
    19     3    20   1
    20     3    21   1
    21     4    22   1
    22     4    23   1
    23     5    24   1
    24     5    25   1
    25     6    26   1
    26     6    27   1
    27     7    28   1
    28     7    29   1
    29     8    30   1
    30     8    31   1
    31     9    32   1
    32     9    33   1
    33    10    34   1
    34    10    35   1
    35    11    36   1
    36    11    37   1
    37    12    38   1
    38    12    39   1
    39    13    40   1
    40    13    41   1
    41    14    42   1
    42    14    43   1
    43    14    44   1
@<TRIPOS>SUBSTRUCTURE
     1  SPM      2

