@<TRIPOS>MOLECULE
3kwa_ligand_030
    44    43
SMALL
GAST_HUCK
****
This file was generated by PARSER (from files_GN.cpp)

@<TRIPOS>ATOM
      1 N1          2.2112    2.1587    7.5142 N.4         1 SPM       0.2187
      2 C2          2.4108    2.8031    8.8187 C.3         1 SPM      -0.0305
      3 C3          1.4405    3.9881    9.0485 C.3         1 SPM       0.0275
      4 C4          1.5853    4.6556   10.4471 C.3         1 SPM      -0.0288
      5 N5          0.5816    4.1717   11.4382 N.4         1 SPM       0.2271
      6 C6         -0.4877    5.1243   11.8364 C.3         1 SPM      -0.0335
      7 C7         -1.5148    5.4397   10.7164 C.3         1 SPM      -0.0078
      8 C8         -2.6155    4.3547   10.5594 C.3         1 SPM      -0.0078
      9 C9         -3.1644    4.2078    9.1195 C.3         1 SPM      -0.0335
     10 N10        -3.6243    5.4865    8.5272 N.4         1 SPM       0.2271
     11 C11        -4.1828    5.3687    7.1586 C.3         1 SPM      -0.0288
     12 C12        -4.7376    6.7186    6.6365 C.3         1 SPM       0.0275
     13 C13        -6.0187    7.2218    7.3469 C.3         1 SPM      -0.0305
     14 N14        -7.1471    6.2965    7.1833 N.4         1 SPM       0.2187
     15 H1          3.0577    1.6429    7.2600 H           1 SPM       0.1994
     16 H2          2.0162    2.8630    6.7976 H           1 SPM       0.1994
     17 H3          1.4327    1.5001    7.5795 H           1 SPM       0.1994
     18 H4          3.4410    3.1633    8.8605 H           1 SPM       0.0815
     19 H5          2.2689    2.0499    9.5937 H           1 SPM       0.0815
     20 H6          0.4130    3.6446    8.9080 H           1 SPM       0.0369
     21 H7          1.6440    4.7404    8.2806 H           1 SPM       0.0369
     22 H8          1.5192    5.7406   10.3222 H           1 SPM       0.0816
     23 H9          2.5820    4.4559   10.8462 H           1 SPM       0.0816
     24 H10         1.0752    3.9178   12.2995 H           1 SPM       0.2013
     25 H11         0.1443    3.3218   11.0764 H           1 SPM       0.2013
     26 H12        -0.0256    6.0551   12.1760 H           1 SPM       0.0814
     27 H13        -1.0156    4.7006   12.6937 H           1 SPM       0.0814
     28 H14        -0.9842    5.5795    9.7728 H           1 SPM       0.0319
     29 H15        -2.0027    6.3884   10.9534 H           1 SPM       0.0319
     30 H16        -3.4418    4.5890   11.2359 H           1 SPM       0.0319
     31 H17        -2.2165    3.3817   10.8557 H           1 SPM       0.0319
     32 H18        -4.0062    3.5123    9.1499 H           1 SPM       0.0814
     33 H19        -2.3791    3.7706    8.4957 H           1 SPM       0.0814
     34 H20        -2.8306    6.1296    8.4880 H           1 SPM       0.2013
     35 H21        -4.3363    5.8884    9.1404 H           1 SPM       0.2013
     36 H22        -4.9712    4.6131    7.1380 H           1 SPM       0.0816
     37 H23        -3.3898    5.0471    6.4768 H           1 SPM       0.0816
     38 H24        -4.9543    6.6165    5.5687 H           1 SPM       0.0369
     39 H25        -3.9580    7.4783    6.7402 H           1 SPM       0.0369
     40 H26        -6.3080    8.1827    6.9158 H           1 SPM       0.0815
     41 H27        -5.8311    7.3696    8.4120 H           1 SPM       0.0815
     42 H28        -7.9906    6.7136    7.5842 H           1 SPM       0.1994
     43 H29        -6.9456    5.4209    7.6658 H           1 SPM       0.1994
     44 H30        -7.3012    6.1074    6.1901 H           1 SPM       0.1994
@<TRIPOS>BOND
     1     1     2   1
     2     2     3   1
     3     3     4   1
     4     4     5   1
     5     5     6   1
     6     6     7   1
     7     7     8   1
     8     8     9   1
     9     9    10   1
    10    10    11   1
    11    11    12   1
    12    12    13   1
    13    13    14   1
    14     1    15   1
    15     1    16   1
    16     1    17   1
    17     2    18   1
    18     2    19   1
    19     3    20   1
    20     3    21   1
    21     4    22   1
    22     4    23   1
    23     5    24   1
    24     5    25   1
    25     6    26   1
    26     6    27   1
    27     7    28   1
    28     7    29   1
    29     8    30   1
    30     8    31   1
    31     9    32   1
    32     9    33   1
    33    10    34   1
    34    10    35   1
    35    11    36   1
    36    11    37   1
    37    12    38   1
    38    12    39   1
    39    13    40   1
    40    13    41   1
    41    14    42   1
    42    14    43   1
    43    14    44   1
@<TRIPOS>SUBSTRUCTURE
     1  SPM      2

