@<TRIPOS>MOLECULE
3kwa_ligand_058
    44    43
SMALL
GAST_HUCK
****
This file was generated by PARSER (from files_GN.cpp)

@<TRIPOS>ATOM
      1 N1         -4.6129   -0.1936   10.5517 N.4         1 SPM       0.2187
      2 C2         -4.0493   -0.8039   11.7576 C.3         1 SPM      -0.0305
      3 C3         -4.2198    0.1536   12.9644 C.3         1 SPM       0.0275
      4 C4         -4.2822   -0.5881   14.3273 C.3         1 SPM      -0.0288
      5 N5         -3.9018    0.2808   15.4677 N.4         1 SPM       0.2271
      6 C6         -4.9416    1.1961   15.9879 C.3         1 SPM      -0.0335
      7 C7         -4.4133    2.6196   16.2530 C.3         1 SPM      -0.0078
      8 C8         -3.9588    3.3980   14.9822 C.3         1 SPM      -0.0078
      9 C9         -3.9471    4.9417   15.1535 C.3         1 SPM      -0.0335
     10 N10        -3.7374    5.6823   13.8861 N.4         1 SPM       0.2271
     11 C11        -2.6142    5.3093   13.0095 C.3         1 SPM      -0.0288
     12 C12        -1.2042    5.6059   13.5937 C.3         1 SPM       0.0275
     13 C13        -0.0525    5.4557   12.5641 C.3         1 SPM      -0.0305
     14 N14        -0.1222    6.4437   11.4764 N.4         1 SPM       0.2187
     15 H1         -4.2339   -0.6678    9.7258 H           1 SPM       0.1994
     16 H2         -4.3631    0.8053   10.5128 H           1 SPM       0.1994
     17 H3         -5.6309   -0.3116   10.5583 H           1 SPM       0.1994
     18 H4         -2.9891   -1.0026   11.5966 H           1 SPM       0.0815
     19 H5         -4.5641   -1.7499   11.9509 H           1 SPM       0.0815
     20 H6         -5.1302    0.7359   12.8241 H           1 SPM       0.0369
     21 H7         -3.3731    0.8470   12.9806 H           1 SPM       0.0369
     22 H8         -3.5958   -1.4394   14.3056 H           1 SPM       0.0816
     23 H9         -5.2872   -0.9909   14.4858 H           1 SPM       0.0816
     24 H10        -3.0755    0.8169   15.1870 H           1 SPM       0.2013
     25 H11        -3.6270   -0.3563   16.2292 H           1 SPM       0.2013
     26 H12        -5.3077    0.7774   16.9192 H           1 SPM       0.0814
     27 H13        -5.7953    1.2661   15.3185 H           1 SPM       0.0814
     28 H14        -3.5694    2.5665   16.9504 H           1 SPM       0.0319
     29 H15        -5.2107    3.1830   16.7489 H           1 SPM       0.0319
     30 H16        -4.5888    3.1356   14.1137 H           1 SPM       0.0319
     31 H17        -2.9304    3.0856   14.7441 H           1 SPM       0.0319
     32 H18        -3.1985    5.2295   15.8982 H           1 SPM       0.0814
     33 H19        -4.9185    5.2627   15.5376 H           1 SPM       0.0814
     34 H20        -3.6476    6.6738   14.1163 H           1 SPM       0.2013
     35 H21        -4.5959    5.5746   13.3390 H           1 SPM       0.2013
     36 H22        -2.7350    5.8948   12.0961 H           1 SPM       0.0816
     37 H23        -2.6994    4.2484   12.7465 H           1 SPM       0.0816
     38 H24        -1.0063    4.9219   14.4202 H           1 SPM       0.0369
     39 H25        -1.1945    6.6245   13.9936 H           1 SPM       0.0369
     40 H26        -0.0703    4.4501   12.1356 H           1 SPM       0.0815
     41 H27         0.9027    5.5909   13.0768 H           1 SPM       0.0815
     42 H28         0.6788    6.3069   10.8474 H           1 SPM       0.1994
     43 H29        -0.0913    7.3929   11.8750 H           1 SPM       0.1994
     44 H30        -0.9909    6.3150   10.9500 H           1 SPM       0.1994
@<TRIPOS>BOND
     1     1     2   1
     2     2     3   1
     3     3     4   1
     4     4     5   1
     5     5     6   1
     6     6     7   1
     7     7     8   1
     8     8     9   1
     9     9    10   1
    10    10    11   1
    11    11    12   1
    12    12    13   1
    13    13    14   1
    14     1    15   1
    15     1    16   1
    16     1    17   1
    17     2    18   1
    18     2    19   1
    19     3    20   1
    20     3    21   1
    21     4    22   1
    22     4    23   1
    23     5    24   1
    24     5    25   1
    25     6    26   1
    26     6    27   1
    27     7    28   1
    28     7    29   1
    29     8    30   1
    30     8    31   1
    31     9    32   1
    32     9    33   1
    33    10    34   1
    34    10    35   1
    35    11    36   1
    36    11    37   1
    37    12    38   1
    38    12    39   1
    39    13    40   1
    40    13    41   1
    41    14    42   1
    42    14    43   1
    43    14    44   1
@<TRIPOS>SUBSTRUCTURE
     1  SPM      2

