@<TRIPOS>MOLECULE
3kwa_ligand_051
    44    43
SMALL
GAST_HUCK
****
This file was generated by PARSER (from files_GN.cpp)

@<TRIPOS>ATOM
      1 N1         -1.2614    5.2449   14.7250 N.4         1 SPM       0.2187
      2 C2         -2.2317    5.2723   13.6227 C.3         1 SPM      -0.0305
      3 C3         -3.4750    6.1376   13.9628 C.3         1 SPM       0.0275
      4 C4         -4.4700    5.5042   14.9831 C.3         1 SPM      -0.0288
      5 N5         -5.6395    4.9017   14.2908 N.4         1 SPM       0.2271
      6 C6         -6.3216    3.7422   14.9148 C.3         1 SPM      -0.0335
      7 C7         -5.5076    2.4171   14.9130 C.3         1 SPM      -0.0078
      8 C8         -4.9475    1.9917   13.5257 C.3         1 SPM      -0.0078
      9 C9         -3.9407    0.8036   13.5825 C.3         1 SPM      -0.0335
     10 N10        -4.3884   -0.3937   12.8173 N.4         1 SPM       0.2271
     11 C11        -3.5110   -0.8804   11.7203 C.3         1 SPM      -0.0288
     12 C12        -3.3333   -2.4173   11.7310 C.3         1 SPM       0.0275
     13 C13        -4.6310   -3.2128   11.4593 C.3         1 SPM      -0.0305
     14 N14        -4.3083   -4.6044   11.1128 N.4         1 SPM       0.2187
     15 H1         -0.4225    4.7330   14.4359 H           1 SPM       0.1994
     16 H2         -1.6733    4.7913   15.5427 H           1 SPM       0.1994
     17 H3         -1.0032    6.2040   14.9650 H           1 SPM       0.1994
     18 H4         -2.5225    4.2494   13.3777 H           1 SPM       0.0815
     19 H5         -1.7293    5.6995   12.7515 H           1 SPM       0.0815
     20 H6         -3.9998    6.3562   13.0280 H           1 SPM       0.0369
     21 H7         -3.1189    7.0957   14.3519 H           1 SPM       0.0369
     22 H8         -4.8429    6.2871   15.6501 H           1 SPM       0.0816
     23 H9         -3.9490    4.7749   15.6049 H           1 SPM       0.0816
     24 H10        -5.3447    4.6154   13.3584 H           1 SPM       0.2013
     25 H11        -6.3363    5.6416   14.1709 H           1 SPM       0.2013
     26 H12        -7.2430    3.5791   14.3517 H           1 SPM       0.0814
     27 H13        -6.6079    3.9913   15.9415 H           1 SPM       0.0814
     28 H14        -6.1553    1.6170   15.2835 H           1 SPM       0.0319
     29 H15        -4.6837    2.5194   15.6213 H           1 SPM       0.0319
     30 H16        -4.4321    2.8392   13.0769 H           1 SPM       0.0319
     31 H17        -5.7812    1.7564   12.8628 H           1 SPM       0.0319
     32 H18        -3.7742    0.4810   14.6129 H           1 SPM       0.0814
     33 H19        -2.9730    1.1666   13.2261 H           1 SPM       0.0814
     34 H20        -5.3024   -0.1971   12.4070 H           1 SPM       0.2013
     35 H21        -4.5143   -1.1581   13.4849 H           1 SPM       0.2013
     36 H22        -2.5094   -0.4527   11.7901 H           1 SPM       0.0816
     37 H23        -3.9350   -0.5668   10.7622 H           1 SPM       0.0816
     38 H24        -2.9312   -2.7210   12.7016 H           1 SPM       0.0369
     39 H25        -2.5916   -2.6781   10.9682 H           1 SPM       0.0369
     40 H26        -5.1901   -2.7684   10.6360 H           1 SPM       0.0815
     41 H27        -5.2704   -3.2044   12.3406 H           1 SPM       0.0815
     42 H28        -5.1765   -5.1129   10.9310 H           1 SPM       0.1994
     43 H29        -3.8036   -5.0561   11.8839 H           1 SPM       0.1994
     44 H30        -3.7220   -4.6146   10.2705 H           1 SPM       0.1994
@<TRIPOS>BOND
     1     1     2   1
     2     2     3   1
     3     3     4   1
     4     4     5   1
     5     5     6   1
     6     6     7   1
     7     7     8   1
     8     8     9   1
     9     9    10   1
    10    10    11   1
    11    11    12   1
    12    12    13   1
    13    13    14   1
    14     1    15   1
    15     1    16   1
    16     1    17   1
    17     2    18   1
    18     2    19   1
    19     3    20   1
    20     3    21   1
    21     4    22   1
    22     4    23   1
    23     5    24   1
    24     5    25   1
    25     6    26   1
    26     6    27   1
    27     7    28   1
    28     7    29   1
    29     8    30   1
    30     8    31   1
    31     9    32   1
    32     9    33   1
    33    10    34   1
    34    10    35   1
    35    11    36   1
    36    11    37   1
    37    12    38   1
    38    12    39   1
    39    13    40   1
    40    13    41   1
    41    14    42   1
    42    14    43   1
    43    14    44   1
@<TRIPOS>SUBSTRUCTURE
     1  SPM      2

