@<TRIPOS>MOLECULE
3kwa_ligand_057
    44    43
SMALL
GAST_HUCK
****
This file was generated by PARSER (from files_GN.cpp)

@<TRIPOS>ATOM
      1 N1         -4.3763   -4.6423   11.0512 N.4         1 SPM       0.2187
      2 C2         -4.9686   -3.3545   11.4335 C.3         1 SPM      -0.0305
      3 C3         -3.9140   -2.2298   11.6453 C.3         1 SPM       0.0275
      4 C4         -4.1468   -1.3589   12.9139 C.3         1 SPM      -0.0288
      5 N5         -3.9720    0.0822   12.6309 N.4         1 SPM       0.2271
      6 C6         -4.1915    0.9611   13.7982 C.3         1 SPM      -0.0335
      7 C7         -3.8699    2.4297   13.4286 C.3         1 SPM      -0.0078
      8 C8         -3.9247    3.3867   14.6534 C.3         1 SPM      -0.0078
      9 C9         -5.3379    3.9118   15.0301 C.3         1 SPM      -0.0335
     10 N10        -5.8798    4.9686   14.1361 N.4         1 SPM       0.2271
     11 C11        -5.5742    6.3914   14.4433 C.3         1 SPM      -0.0288
     12 C12        -4.1356    6.8538   14.0704 C.3         1 SPM       0.0275
     13 C13        -3.1225    6.9038   15.2453 C.3         1 SPM      -0.0305
     14 N14        -3.3178    8.0793   16.1027 N.4         1 SPM       0.2187
     15 H1         -5.1527   -5.2663   10.8263 H           1 SPM       0.1994
     16 H2         -3.8377   -5.0358   11.8308 H           1 SPM       0.1994
     17 H3         -3.7711   -4.5269   10.2330 H           1 SPM       0.1994
     18 H4         -5.5637   -3.5266   12.3273 H           1 SPM       0.0815
     19 H5         -5.6659   -3.0490   10.6521 H           1 SPM       0.0815
     20 H6         -3.9200   -1.5896   10.7566 H           1 SPM       0.0369
     21 H7         -2.9145   -2.6692   11.7121 H           1 SPM       0.0369
     22 H8         -3.4413   -1.6669   13.6899 H           1 SPM       0.0816
     23 H9         -5.1504   -1.5017   13.3136 H           1 SPM       0.0816
     24 H10        -4.6341    0.3518   11.8996 H           1 SPM       0.2013
     25 H11        -3.0227    0.2348   12.2849 H           1 SPM       0.2013
     26 H12        -3.5412    0.6425   14.6172 H           1 SPM       0.0814
     27 H13        -5.2299    0.8888   14.1299 H           1 SPM       0.0814
     28 H14        -4.5553    2.7719   12.6462 H           1 SPM       0.0319
     29 H15        -2.8566    2.4606   13.0141 H           1 SPM       0.0319
     30 H16        -3.2670    4.2263   14.4495 H           1 SPM       0.0319
     31 H17        -3.5078    2.8809   15.5270 H           1 SPM       0.0319
     32 H18        -5.3244    4.2674   16.0630 H           1 SPM       0.0814
     33 H19        -6.0345    3.0728   14.9943 H           1 SPM       0.0814
     34 H20        -6.9005    4.8869   14.1745 H           1 SPM       0.2013
     35 H21        -5.5901    4.7756   13.1753 H           1 SPM       0.2013
     36 H22        -5.8023    6.6152   15.4899 H           1 SPM       0.0816
     37 H23        -6.2752    6.9778   13.8409 H           1 SPM       0.0816
     38 H24        -4.1861    7.8546   13.6316 H           1 SPM       0.0369
     39 H25        -3.7464    6.1950   13.2912 H           1 SPM       0.0369
     40 H26        -2.1114    6.9499   14.8357 H           1 SPM       0.0815
     41 H27        -3.1988    6.0149   15.8696 H           1 SPM       0.0815
     42 H28        -2.5468    8.1414   16.7718 H           1 SPM       0.1994
     43 H29        -4.2015    7.9928   16.6105 H           1 SPM       0.1994
     44 H30        -3.3295    8.9243   15.5273 H           1 SPM       0.1994
@<TRIPOS>BOND
     1     1     2   1
     2     2     3   1
     3     3     4   1
     4     4     5   1
     5     5     6   1
     6     6     7   1
     7     7     8   1
     8     8     9   1
     9     9    10   1
    10    10    11   1
    11    11    12   1
    12    12    13   1
    13    13    14   1
    14     1    15   1
    15     1    16   1
    16     1    17   1
    17     2    18   1
    18     2    19   1
    19     3    20   1
    20     3    21   1
    21     4    22   1
    22     4    23   1
    23     5    24   1
    24     5    25   1
    25     6    26   1
    26     6    27   1
    27     7    28   1
    28     7    29   1
    29     8    30   1
    30     8    31   1
    31     9    32   1
    32     9    33   1
    33    10    34   1
    34    10    35   1
    35    11    36   1
    36    11    37   1
    37    12    38   1
    38    12    39   1
    39    13    40   1
    40    13    41   1
    41    14    42   1
    42    14    43   1
    43    14    44   1
@<TRIPOS>SUBSTRUCTURE
     1  SPM      2

