@<TRIPOS>MOLECULE
3kwa_ligand_020
    44    43
SMALL
GAST_HUCK
****
This file was generated by PARSER (from files_GN.cpp)

@<TRIPOS>ATOM
      1 N1         -6.3796    6.0179    7.0005 N.4         1 SPM       0.2187
      2 C2         -4.9558    5.6577    7.0570 C.3         1 SPM      -0.0305
      3 C3         -4.3857    5.7979    8.4997 C.3         1 SPM       0.0275
      4 C4         -3.2648    4.7655    8.8563 C.3         1 SPM      -0.0288
      5 N5         -3.7313    3.5850    9.6353 N.4         1 SPM       0.2271
      6 C6         -3.8102    3.7469   11.1225 C.3         1 SPM      -0.0335
      7 C7         -3.5586    2.4128   11.8915 C.3         1 SPM      -0.0078
      8 C8         -4.7088    1.9648   12.8482 C.3         1 SPM      -0.0078
      9 C9         -5.3005    3.0247   13.8222 C.3         1 SPM      -0.0335
     10 N10        -4.5810    3.2722   15.1029 N.4         1 SPM       0.2271
     11 C11        -4.3878    2.1695   16.0897 C.3         1 SPM      -0.0288
     12 C12        -5.6656    1.4447   16.6134 C.3         1 SPM       0.0275
     13 C13        -6.4737    2.2103   17.7130 C.3         1 SPM      -0.0305
     14 N14        -6.4427    1.4940   19.0023 N.4         1 SPM       0.2187
     15 H1         -6.7113    5.9885    6.0274 H           1 SPM       0.1994
     16 H2         -6.5145    6.9605    7.3866 H           1 SPM       0.1994
     17 H3         -6.8932    5.3288    7.5613 H           1 SPM       0.1994
     18 H4         -4.3942    6.3178    6.3817 H           1 SPM       0.0815
     19 H5         -4.8511    4.6256    6.7000 H           1 SPM       0.0815
     20 H6         -5.2026    5.7052    9.2183 H           1 SPM       0.0369
     21 H7         -3.9809    6.8086    8.6111 H           1 SPM       0.0369
     22 H8         -2.4682    5.2656    9.4195 H           1 SPM       0.0816
     23 H9         -2.8055    4.3908    7.9344 H           1 SPM       0.0816
     24 H10        -3.1193    2.7852    9.4229 H           1 SPM       0.2013
     25 H11        -4.6754    3.3570    9.3206 H           1 SPM       0.2013
     26 H12        -4.8081    4.1192   11.3766 H           1 SPM       0.0814
     27 H13        -3.0823    4.4943   11.4625 H           1 SPM       0.0814
     28 H14        -2.6225    2.4855   12.4563 H           1 SPM       0.0319
     29 H15        -3.4334    1.6059   11.1598 H           1 SPM       0.0319
     30 H16        -4.3615    1.0969   13.4227 H           1 SPM       0.0319
     31 H17        -5.5243    1.6041   12.2085 H           1 SPM       0.0319
     32 H18        -6.3223    2.7267   14.0758 H           1 SPM       0.0814
     33 H19        -5.3667    3.9773   13.2817 H           1 SPM       0.0814
     34 H20        -5.0959    4.0146   15.5872 H           1 SPM       0.2013
     35 H21        -3.6508    3.6324   14.8737 H           1 SPM       0.2013
     36 H22        -3.8589    2.6016   16.9507 H           1 SPM       0.0816
     37 H23        -3.7178    1.4180   15.6503 H           1 SPM       0.0816
     38 H24        -5.3517    0.4722   17.0085 H           1 SPM       0.0369
     39 H25        -6.3196    1.2374   15.7595 H           1 SPM       0.0369
     40 H26        -7.5232    2.2933   17.3915 H           1 SPM       0.0815
     41 H27        -6.0810    3.2284   17.8603 H           1 SPM       0.0815
     42 H28        -7.0319    1.9975   19.6838 H           1 SPM       0.1994
     43 H29        -5.4721    1.4471   19.3487 H           1 SPM       0.1994
     44 H30        -6.8112    0.5424   18.8595 H           1 SPM       0.1994
@<TRIPOS>BOND
     1     1     2   1
     2     2     3   1
     3     3     4   1
     4     4     5   1
     5     5     6   1
     6     6     7   1
     7     7     8   1
     8     8     9   1
     9     9    10   1
    10    10    11   1
    11    11    12   1
    12    12    13   1
    13    13    14   1
    14     1    15   1
    15     1    16   1
    16     1    17   1
    17     2    18   1
    18     2    19   1
    19     3    20   1
    20     3    21   1
    21     4    22   1
    22     4    23   1
    23     5    24   1
    24     5    25   1
    25     6    26   1
    26     6    27   1
    27     7    28   1
    28     7    29   1
    29     8    30   1
    30     8    31   1
    31     9    32   1
    32     9    33   1
    33    10    34   1
    34    10    35   1
    35    11    36   1
    36    11    37   1
    37    12    38   1
    38    12    39   1
    39    13    40   1
    40    13    41   1
    41    14    42   1
    42    14    43   1
    43    14    44   1
@<TRIPOS>SUBSTRUCTURE
     1  SPM      2

