@<TRIPOS>MOLECULE
3kwa_ligand_017
    44    43
SMALL
GAST_HUCK
****
This file was generated by PARSER (from files_GN.cpp)

@<TRIPOS>ATOM
      1 N1         -2.1403    6.3198   14.9832 N.4         1 SPM       0.2187
      2 C2         -1.2822    5.2983   14.3726 C.3         1 SPM      -0.0305
      3 C3         -2.0073    4.4787   13.2754 C.3         1 SPM       0.0275
      4 C4         -3.3584    3.8429   13.7157 C.3         1 SPM      -0.0288
      5 N5         -3.6332    2.4845   13.1790 N.4         1 SPM       0.2271
      6 C6         -3.4653    2.1829   11.7317 C.3         1 SPM      -0.0335
      7 C7         -4.1757    3.1462   10.7203 C.3         1 SPM      -0.0078
      8 C8         -3.2089    4.0889    9.9289 C.3         1 SPM      -0.0078
      9 C9         -3.6224    5.5853    9.9513 C.3         1 SPM      -0.0335
     10 N10        -4.7710    5.9077    9.0715 N.4         1 SPM       0.2271
     11 C11        -4.4927    6.0726    7.6198 C.3         1 SPM      -0.0288
     12 C12        -5.3292    7.2214    6.9819 C.3         1 SPM       0.0275
     13 C13        -6.8120    7.2916    7.4150 C.3         1 SPM      -0.0305
     14 N14        -7.5118    6.0267    7.1837 N.4         1 SPM       0.2187
     15 H1         -1.5802    6.8893   15.6180 H           1 SPM       0.1994
     16 H2         -2.8977    5.8682   15.5100 H           1 SPM       0.1994
     17 H3         -2.5421    6.9198   14.2555 H           1 SPM       0.1994
     18 H4         -0.9124    4.6296   15.1575 H           1 SPM       0.0815
     19 H5         -0.4286    5.8021   13.9158 H           1 SPM       0.0815
     20 H6         -1.3205    3.6939   12.9378 H           1 SPM       0.0369
     21 H7         -2.1955    5.1474   12.4268 H           1 SPM       0.0369
     22 H8         -4.1841    4.5122   13.4503 H           1 SPM       0.0816
     23 H9         -3.3715    3.7335   14.8065 H           1 SPM       0.0816
     24 H10        -4.5964    2.2566   13.4312 H           1 SPM       0.2013
     25 H11        -3.0128    1.8514   13.6854 H           1 SPM       0.2013
     26 H12        -3.8937    1.1843   11.5990 H           1 SPM       0.0814
     27 H13        -2.3982    2.0945   11.5073 H           1 SPM       0.0814
     28 H14        -4.9385    3.7200   11.2573 H           1 SPM       0.0319
     29 H15        -4.7141    2.5330    9.9838 H           1 SPM       0.0319
     30 H16        -3.1433    3.7514    8.8876 H           1 SPM       0.0319
     31 H17        -2.1935    4.0294   10.3281 H           1 SPM       0.0319
     32 H18        -2.7656    6.2055    9.6622 H           1 SPM       0.0814
     33 H19        -3.8871    5.8652   10.9765 H           1 SPM       0.0814
     34 H20        -5.1735    6.7864    9.4168 H           1 SPM       0.2013
     35 H21        -5.4766    5.1719    9.1575 H           1 SPM       0.2013
     36 H22        -4.7233    5.1329    7.1088 H           1 SPM       0.0816
     37 H23        -3.4375    6.2963    7.4380 H           1 SPM       0.0816
     38 H24        -5.2870    7.1139    5.8915 H           1 SPM       0.0369
     39 H25        -4.8493    8.1747    7.2359 H           1 SPM       0.0369
     40 H26        -7.3175    8.0734    6.8396 H           1 SPM       0.0815
     41 H27        -6.8858    7.5516    8.4741 H           1 SPM       0.0815
     42 H28        -8.4545    6.0785    7.5723 H           1 SPM       0.1994
     43 H29        -7.0014    5.2717    7.6364 H           1 SPM       0.1994
     44 H30        -7.5578    5.8547    6.1800 H           1 SPM       0.1994
@<TRIPOS>BOND
     1     1     2   1
     2     2     3   1
     3     3     4   1
     4     4     5   1
     5     5     6   1
     6     6     7   1
     7     7     8   1
     8     8     9   1
     9     9    10   1
    10    10    11   1
    11    11    12   1
    12    12    13   1
    13    13    14   1
    14     1    15   1
    15     1    16   1
    16     1    17   1
    17     2    18   1
    18     2    19   1
    19     3    20   1
    20     3    21   1
    21     4    22   1
    22     4    23   1
    23     5    24   1
    24     5    25   1
    25     6    26   1
    26     6    27   1
    27     7    28   1
    28     7    29   1
    29     8    30   1
    30     8    31   1
    31     9    32   1
    32     9    33   1
    33    10    34   1
    34    10    35   1
    35    11    36   1
    36    11    37   1
    37    12    38   1
    38    12    39   1
    39    13    40   1
    40    13    41   1
    41    14    42   1
    42    14    43   1
    43    14    44   1
@<TRIPOS>SUBSTRUCTURE
     1  SPM      2

