@<TRIPOS>MOLECULE
3kwa_ligand_025
    44    43
SMALL
GAST_HUCK
****
This file was generated by PARSER (from files_GN.cpp)

@<TRIPOS>ATOM
      1 N1         -3.7488   -4.3459   11.1458 N.4         1 SPM       0.2187
      2 C2         -3.1765   -3.0788   11.6209 C.3         1 SPM      -0.0305
      3 C3         -4.0948   -1.8341   11.4634 C.3         1 SPM       0.0275
      4 C4         -4.0601   -0.8498   12.6765 C.3         1 SPM      -0.0288
      5 N5         -3.6218    0.5373   12.3512 N.4         1 SPM       0.2271
      6 C6         -4.7177    1.5123   12.1751 C.3         1 SPM      -0.0335
      7 C7         -4.1968    2.9122   11.7599 C.3         1 SPM      -0.0078
      8 C8         -4.0343    3.1158   10.2278 C.3         1 SPM      -0.0078
      9 C9         -3.8677    4.6112    9.8006 C.3         1 SPM      -0.0335
     10 N10        -2.4969    5.0235    9.4177 N.4         1 SPM       0.2271
     11 C11        -1.9924    4.7106    8.0563 C.3         1 SPM      -0.0288
     12 C12        -2.7866    5.3875    6.8987 C.3         1 SPM       0.0275
     13 C13        -1.9311    6.2252    5.9149 C.3         1 SPM      -0.0305
     14 N14        -1.5092    7.4851    6.5380 N.4         1 SPM       0.2187
     15 H1         -3.1898   -5.1168   11.5216 H           1 SPM       0.1994
     16 H2         -3.7150   -4.3802   10.1302 H           1 SPM       0.1994
     17 H3         -4.7125   -4.4570   11.4609 H           1 SPM       0.1994
     18 H4         -2.2430   -2.9095   11.0776 H           1 SPM       0.0815
     19 H5         -2.9274   -3.2434   12.6663 H           1 SPM       0.0815
     20 H6         -5.1225   -2.1777   11.3275 H           1 SPM       0.0369
     21 H7         -3.8237   -1.3072   10.5460 H           1 SPM       0.0369
     22 H8         -3.4025   -1.2185   13.4581 H           1 SPM       0.0816
     23 H9         -5.0557   -0.8442   13.1312 H           1 SPM       0.0816
     24 H10        -3.0456    0.5411   11.5056 H           1 SPM       0.2013
     25 H11        -3.0404    0.8845   13.1196 H           1 SPM       0.2013
     26 H12        -5.2295    1.6105   13.1342 H           1 SPM       0.0814
     27 H13        -5.4452    1.1426   11.4482 H           1 SPM       0.0814
     28 H14        -3.2394    3.1159   12.2448 H           1 SPM       0.0319
     29 H15        -4.9102    3.6528   12.1299 H           1 SPM       0.0319
     30 H16        -4.9275    2.7275    9.7296 H           1 SPM       0.0319
     31 H17        -3.1889    2.5325    9.8687 H           1 SPM       0.0319
     32 H18        -4.1460    5.2641   10.6293 H           1 SPM       0.0814
     33 H19        -4.5653    4.8421    8.9920 H           1 SPM       0.0814
     34 H20        -1.8472    4.6114   10.0889 H           1 SPM       0.2013
     35 H21        -2.4453    6.0380    9.5155 H           1 SPM       0.2013
     36 H22        -1.9596    3.6283    7.9198 H           1 SPM       0.0816
     37 H23        -0.9602    5.0566    8.0442 H           1 SPM       0.0816
     38 H24        -3.5524    6.0540    7.2979 H           1 SPM       0.0369
     39 H25        -3.3053    4.6150    6.3229 H           1 SPM       0.0369
     40 H26        -2.5169    6.4718    5.0276 H           1 SPM       0.0815
     41 H27        -1.0503    5.6647    5.5974 H           1 SPM       0.0815
     42 H28        -0.9396    8.0260    5.8835 H           1 SPM       0.1994
     43 H29        -0.9666    7.2933    7.3789 H           1 SPM       0.1994
     44 H30        -2.3368    8.0326    6.7888 H           1 SPM       0.1994
@<TRIPOS>BOND
     1     1     2   1
     2     2     3   1
     3     3     4   1
     4     4     5   1
     5     5     6   1
     6     6     7   1
     7     7     8   1
     8     8     9   1
     9     9    10   1
    10    10    11   1
    11    11    12   1
    12    12    13   1
    13    13    14   1
    14     1    15   1
    15     1    16   1
    16     1    17   1
    17     2    18   1
    18     2    19   1
    19     3    20   1
    20     3    21   1
    21     4    22   1
    22     4    23   1
    23     5    24   1
    24     5    25   1
    25     6    26   1
    26     6    27   1
    27     7    28   1
    28     7    29   1
    29     8    30   1
    30     8    31   1
    31     9    32   1
    32     9    33   1
    33    10    34   1
    34    10    35   1
    35    11    36   1
    36    11    37   1
    37    12    38   1
    38    12    39   1
    39    13    40   1
    40    13    41   1
    41    14    42   1
    42    14    43   1
    43    14    44   1
@<TRIPOS>SUBSTRUCTURE
     1  SPM      2

