@<TRIPOS>MOLECULE
3kwa_ligand_039
    44    43
SMALL
GAST_HUCK
****
This file was generated by PARSER (from files_GN.cpp)

@<TRIPOS>ATOM
      1 N1         -3.4025    3.2273   15.6071 N.4         1 SPM       0.2187
      2 C2         -3.1905    4.5252   14.9584 C.3         1 SPM      -0.0305
      3 C3         -1.6951    4.7889   14.6475 C.3         1 SPM       0.0275
      4 C4         -1.3727    6.2413   14.1823 C.3         1 SPM      -0.0288
      5 N5         -2.2072    6.7623   13.0647 N.4         1 SPM       0.2271
      6 C6         -3.4624    7.4661   13.4316 C.3         1 SPM      -0.0335
      7 C7         -4.2358    7.9768   12.1918 C.3         1 SPM      -0.0078
      8 C8         -4.6926    6.8543   11.2200 C.3         1 SPM      -0.0078
      9 C9         -5.9663    7.2608   10.4345 C.3         1 SPM      -0.0335
     10 N10        -6.0194    6.6111    9.1097 N.4         1 SPM       0.2271
     11 C11        -6.9659    7.2029    8.1291 C.3         1 SPM      -0.0288
     12 C12        -6.2487    7.6465    6.8283 C.3         1 SPM       0.0275
     13 C13        -5.4187    6.5450    6.1211 C.3         1 SPM      -0.0305
     14 N14        -6.1148    5.2532    6.0684 N.4         1 SPM       0.2187
     15 H1         -4.4080    3.0335   15.6617 H           1 SPM       0.1994
     16 H2         -3.0162    3.2588   16.5579 H           1 SPM       0.1994
     17 H3         -2.9421    2.4884   15.0680 H           1 SPM       0.1994
     18 H4         -3.5766    5.3035   15.6199 H           1 SPM       0.0815
     19 H5         -3.7578    4.5358   14.0265 H           1 SPM       0.0815
     20 H6         -1.3613    4.0849   13.8798 H           1 SPM       0.0369
     21 H7         -1.1092    4.5962   15.5551 H           1 SPM       0.0369
     22 H8         -0.3353    6.2428   13.8239 H           1 SPM       0.0816
     23 H9         -1.4119    6.9174   15.0446 H           1 SPM       0.0816
     24 H10        -2.4340    5.9884   12.4436 H           1 SPM       0.2013
     25 H11        -1.6354    7.4289   12.5380 H           1 SPM       0.2013
     26 H12        -3.2104    8.3354   14.0594 H           1 SPM       0.0814
     27 H13        -4.1283    6.8143   14.0057 H           1 SPM       0.0814
     28 H14        -3.6172    8.6978   11.6514 H           1 SPM       0.0319
     29 H15        -5.1204    8.4995   12.5537 H           1 SPM       0.0319
     30 H16        -4.8956    5.9327   11.7754 H           1 SPM       0.0319
     31 H17        -3.8830    6.6500   10.5123 H           1 SPM       0.0319
     32 H18        -5.9734    8.3519   10.2961 H           1 SPM       0.0814
     33 H19        -6.8459    6.9707   11.0270 H           1 SPM       0.0814
     34 H20        -6.2473    5.6151    9.2154 H           1 SPM       0.2013
     35 H21        -5.0786    6.6625    8.7235 H           1 SPM       0.2013
     36 H22        -7.4919    8.0701    8.5500 H           1 SPM       0.0816
     37 H23        -7.7239    6.4500    7.9040 H           1 SPM       0.0816
     38 H24        -5.5858    8.4783    7.0633 H           1 SPM       0.0369
     39 H25        -7.0053    8.0171    6.1433 H           1 SPM       0.0369
     40 H26        -4.4664    6.3962    6.6338 H           1 SPM       0.0815
     41 H27        -5.1979    6.8669    5.0999 H           1 SPM       0.0815
     42 H28        -5.5487    4.5721    5.5499 H           1 SPM       0.1994
     43 H29        -7.0149    5.3764    5.5953 H           1 SPM       0.1994
     44 H30        -6.2601    4.9114    7.0263 H           1 SPM       0.1994
@<TRIPOS>BOND
     1     1     2   1
     2     2     3   1
     3     3     4   1
     4     4     5   1
     5     5     6   1
     6     6     7   1
     7     7     8   1
     8     8     9   1
     9     9    10   1
    10    10    11   1
    11    11    12   1
    12    12    13   1
    13    13    14   1
    14     1    15   1
    15     1    16   1
    16     1    17   1
    17     2    18   1
    18     2    19   1
    19     3    20   1
    20     3    21   1
    21     4    22   1
    22     4    23   1
    23     5    24   1
    24     5    25   1
    25     6    26   1
    26     6    27   1
    27     7    28   1
    28     7    29   1
    29     8    30   1
    30     8    31   1
    31     9    32   1
    32     9    33   1
    33    10    34   1
    34    10    35   1
    35    11    36   1
    36    11    37   1
    37    12    38   1
    38    12    39   1
    39    13    40   1
    40    13    41   1
    41    14    42   1
    42    14    43   1
    43    14    44   1
@<TRIPOS>SUBSTRUCTURE
     1  SPM      2

