@<TRIPOS>MOLECULE
3kwa_ligand_034
    44    43
SMALL
GAST_HUCK
****
This file was generated by PARSER (from files_GN.cpp)

@<TRIPOS>ATOM
      1 N1         -6.9545    9.2001   11.6784 N.4         1 SPM       0.2187
      2 C2         -7.5064    7.9105   11.2583 C.3         1 SPM      -0.0305
      3 C3         -6.9156    7.4170    9.9116 C.3         1 SPM       0.0275
      4 C4         -5.3785    7.2035    9.9223 C.3         1 SPM      -0.0288
      5 N5         -4.9896    6.2176    8.8822 N.4         1 SPM       0.2271
      6 C6         -3.5515    5.8912    8.7471 C.3         1 SPM      -0.0335
      7 C7         -2.8405    5.2727    9.9821 C.3         1 SPM      -0.0078
      8 C8         -3.6476    4.1857   10.7459 C.3         1 SPM      -0.0078
      9 C9         -2.8048    3.2417   11.6517 C.3         1 SPM      -0.0335
     10 N10        -3.3919    2.9216   12.9752 N.4         1 SPM       0.2271
     11 C11        -4.7225    2.2613   12.9781 C.3         1 SPM      -0.0288
     12 C12        -5.3682    2.2018   14.3934 C.3         1 SPM       0.0275
     13 C13        -5.1152    0.8932   15.1852 C.3         1 SPM      -0.0305
     14 N14        -3.8379    0.8968   15.8969 N.4         1 SPM       0.2187
     15 H1         -7.3655    9.4673   12.5759 H           1 SPM       0.1994
     16 H2         -7.1685    9.9127   10.9824 H           1 SPM       0.1994
     17 H3         -5.9396    9.1232   11.7858 H           1 SPM       0.1994
     18 H4         -8.5859    8.0214   11.1458 H           1 SPM       0.0815
     19 H5         -7.3220    7.1721   12.0362 H           1 SPM       0.0815
     20 H6         -7.1650    8.1288    9.1257 H           1 SPM       0.0369
     21 H7         -7.4028    6.4740    9.6688 H           1 SPM       0.0369
     22 H8         -5.0712    6.8580   10.9011 H           1 SPM       0.0816
     23 H9         -4.8747    8.1506    9.7337 H           1 SPM       0.0816
     24 H10        -5.3042    6.5854    7.9855 H           1 SPM       0.2013
     25 H11        -5.4990    5.3481    9.0570 H           1 SPM       0.2013
     26 H12        -3.0120    6.7866    8.4380 H           1 SPM       0.0814
     27 H13        -3.4769    5.1749    7.9252 H           1 SPM       0.0814
     28 H14        -2.5924    6.0750   10.6853 H           1 SPM       0.0319
     29 H15        -1.8953    4.8433    9.6395 H           1 SPM       0.0319
     30 H16        -4.2091    3.5759   10.0339 H           1 SPM       0.0319
     31 H17        -4.3814    4.6968   11.3721 H           1 SPM       0.0319
     32 H18        -1.8328    3.6918   11.8539 H           1 SPM       0.0814
     33 H19        -2.6092    2.3093   11.1157 H           1 SPM       0.0814
     34 H20        -3.4672    3.7981   13.4979 H           1 SPM       0.2013
     35 H21        -2.7405    2.3149   13.4751 H           1 SPM       0.2013
     36 H22        -4.6352    1.2662   12.5428 H           1 SPM       0.0816
     37 H23        -5.4008    2.8263   12.3420 H           1 SPM       0.0816
     38 H24        -6.4498    2.3003   14.2668 H           1 SPM       0.0369
     39 H25        -5.0508    3.0622   14.9884 H           1 SPM       0.0369
     40 H26        -5.1468    0.0250   14.5269 H           1 SPM       0.0815
     41 H27        -5.9031    0.7683   15.9315 H           1 SPM       0.0815
     42 H28        -3.7073   -0.0058   16.3618 H           1 SPM       0.1994
     43 H29        -3.8439    1.6442   16.5956 H           1 SPM       0.1994
     44 H30        -3.0720    1.0584   15.2430 H           1 SPM       0.1994
@<TRIPOS>BOND
     1     1     2   1
     2     2     3   1
     3     3     4   1
     4     4     5   1
     5     5     6   1
     6     6     7   1
     7     7     8   1
     8     8     9   1
     9     9    10   1
    10    10    11   1
    11    11    12   1
    12    12    13   1
    13    13    14   1
    14     1    15   1
    15     1    16   1
    16     1    17   1
    17     2    18   1
    18     2    19   1
    19     3    20   1
    20     3    21   1
    21     4    22   1
    22     4    23   1
    23     5    24   1
    24     5    25   1
    25     6    26   1
    26     6    27   1
    27     7    28   1
    28     7    29   1
    29     8    30   1
    30     8    31   1
    31     9    32   1
    32     9    33   1
    33    10    34   1
    34    10    35   1
    35    11    36   1
    36    11    37   1
    37    12    38   1
    38    12    39   1
    39    13    40   1
    40    13    41   1
    41    14    42   1
    42    14    43   1
    43    14    44   1
@<TRIPOS>SUBSTRUCTURE
     1  SPM      2

