@<TRIPOS>MOLECULE
3kwa_ligand_021
    44    43
SMALL
GAST_HUCK
****
This file was generated by PARSER (from files_GN.cpp)

@<TRIPOS>ATOM
      1 N1         -6.0548    5.2594    6.1583 N.4         1 SPM       0.2187
      2 C2         -5.3558    6.5457    6.2498 C.3         1 SPM      -0.0305
      3 C3         -3.9191    6.4376    6.8275 C.3         1 SPM       0.0275
      4 C4         -3.7226    5.4891    8.0493 C.3         1 SPM      -0.0288
      5 N5         -4.4939    5.7819    9.2752 N.4         1 SPM       0.2271
      6 C6         -4.6545    7.2078    9.6549 C.3         1 SPM      -0.0335
      7 C7         -5.1755    7.2993   11.1201 C.3         1 SPM      -0.0078
      8 C8         -5.8994    8.6270   11.4681 C.3         1 SPM      -0.0078
      9 C9         -6.8920    9.1507   10.3819 C.3         1 SPM      -0.0335
     10 N10        -7.9207    8.1436   10.0259 N.4         1 SPM       0.2271
     11 C11        -8.8874    8.3853    8.9205 C.3         1 SPM      -0.0288
     12 C12        -8.8942    9.7770    8.2269 C.3         1 SPM       0.0275
     13 C13       -10.2428   10.1077    7.5389 C.3         1 SPM      -0.0305
     14 N14       -11.2690   10.4873    8.5253 N.4         1 SPM       0.2187
     15 H1         -6.9084    5.3979    5.6055 H           1 SPM       0.1994
     16 H2         -6.3003    4.9395    7.0953 H           1 SPM       0.1994
     17 H3         -5.4611    4.5624    5.6991 H           1 SPM       0.1994
     18 H4         -5.9585    7.2191    6.8634 H           1 SPM       0.0815
     19 H5         -5.2921    6.9693    5.2428 H           1 SPM       0.0815
     20 H6         -3.5896    7.4437    7.1119 H           1 SPM       0.0369
     21 H7         -3.2546    6.0904    6.0272 H           1 SPM       0.0369
     22 H8         -2.6573    5.4675    8.3015 H           1 SPM       0.0816
     23 H9         -4.0060    4.4792    7.7381 H           1 SPM       0.0816
     24 H10        -4.0101    5.3058   10.0502 H           1 SPM       0.2013
     25 H11        -5.4203    5.3510    9.1684 H           1 SPM       0.2013
     26 H12        -5.3848    7.6647    8.9759 H           1 SPM       0.0814
     27 H13        -3.7005    7.7439    9.5693 H           1 SPM       0.0814
     28 H14        -4.3281    7.1676   11.8053 H           1 SPM       0.0319
     29 H15        -5.8685    6.4753   11.3171 H           1 SPM       0.0319
     30 H16        -5.1536    9.4038   11.6688 H           1 SPM       0.0319
     31 H17        -6.4642    8.4676   12.3948 H           1 SPM       0.0319
     32 H18        -6.3290    9.4276    9.4863 H           1 SPM       0.0814
     33 H19        -7.3875   10.0505   10.7764 H           1 SPM       0.0814
     34 H20        -8.4658    7.9591   10.8760 H           1 SPM       0.2013
     35 H21        -7.4246    7.2808    9.7852 H           1 SPM       0.2013
     36 H22        -9.8812    8.1726    9.3256 H           1 SPM       0.0816
     37 H23        -8.6929    7.6280    8.1577 H           1 SPM       0.0816
     38 H24        -8.0988    9.7917    7.4750 H           1 SPM       0.0369
     39 H25        -8.6844   10.5584    8.9657 H           1 SPM       0.0369
     40 H26       -10.5962    9.2496    6.9612 H           1 SPM       0.0815
     41 H27       -10.0965   10.9545    6.8603 H           1 SPM       0.0815
     42 H28       -12.1055   10.8181    8.0371 H           1 SPM       0.1994
     43 H29       -10.9029   11.2386    9.1234 H           1 SPM       0.1994
     44 H30       -11.5121    9.6740    9.1031 H           1 SPM       0.1994
@<TRIPOS>BOND
     1     1     2   1
     2     2     3   1
     3     3     4   1
     4     4     5   1
     5     5     6   1
     6     6     7   1
     7     7     8   1
     8     8     9   1
     9     9    10   1
    10    10    11   1
    11    11    12   1
    12    12    13   1
    13    13    14   1
    14     1    15   1
    15     1    16   1
    16     1    17   1
    17     2    18   1
    18     2    19   1
    19     3    20   1
    20     3    21   1
    21     4    22   1
    22     4    23   1
    23     5    24   1
    24     5    25   1
    25     6    26   1
    26     6    27   1
    27     7    28   1
    28     7    29   1
    29     8    30   1
    30     8    31   1
    31     9    32   1
    32     9    33   1
    33    10    34   1
    34    10    35   1
    35    11    36   1
    36    11    37   1
    37    12    38   1
    38    12    39   1
    39    13    40   1
    40    13    41   1
    41    14    42   1
    42    14    43   1
    43    14    44   1
@<TRIPOS>SUBSTRUCTURE
     1  SPM      2

