@<TRIPOS>MOLECULE
3kwa_ligand_045
    44    43
SMALL
GAST_HUCK
****
This file was generated by PARSER (from files_GN.cpp)

@<TRIPOS>ATOM
      1 N1         -4.5531    5.6530    9.1620 N.4         1 SPM       0.2187
      2 C2         -3.8287    5.2893   10.3847 C.3         1 SPM      -0.0305
      3 C3         -3.3674    3.8207   10.4116 C.3         1 SPM       0.0275
      4 C4         -4.3755    2.8365   11.0641 C.3         1 SPM      -0.0288
      5 N5         -3.6877    1.6785   11.6759 N.4         1 SPM       0.2271
      6 C6         -4.5160    0.5638   12.1987 C.3         1 SPM      -0.0335
      7 C7         -4.4874    0.4408   13.7550 C.3         1 SPM      -0.0078
      8 C8         -4.9447    1.7495   14.4314 C.3         1 SPM      -0.0078
      9 C9         -5.4743    1.6016   15.8839 C.3         1 SPM      -0.0335
     10 N10        -5.5369    2.9091   16.5950 N.4         1 SPM       0.2271
     11 C11        -6.6031    3.8712   16.2168 C.3         1 SPM      -0.0288
     12 C12        -6.3560    4.6679   14.9010 C.3         1 SPM       0.0275
     13 C13        -5.8511    6.1174   15.0746 C.3         1 SPM      -0.0305
     14 N14        -4.3986    6.2481   14.8807 N.4         1 SPM       0.2187
     15 H1         -4.8756    6.6171    9.2237 H           1 SPM       0.1994
     16 H2         -5.3546    5.0360    9.0332 H           1 SPM       0.1994
     17 H3         -3.9295    5.5604    8.3576 H           1 SPM       0.1994
     18 H4         -4.4770    5.5002   11.2448 H           1 SPM       0.0815
     19 H5         -2.9594    5.9464   10.4633 H           1 SPM       0.0815
     20 H6         -2.4237    3.7720   10.9671 H           1 SPM       0.0369
     21 H7         -3.1617    3.4801    9.3841 H           1 SPM       0.0369
     22 H8         -5.0912    2.4846   10.3121 H           1 SPM       0.0816
     23 H9         -4.9362    3.3775   11.8377 H           1 SPM       0.0816
     24 H10        -3.0989    2.0209   12.4450 H           1 SPM       0.2013
     25 H11        -3.0549    1.2880   10.9662 H           1 SPM       0.2013
     26 H12        -4.1291   -0.3685   11.7931 H           1 SPM       0.0814
     27 H13        -5.5596    0.6537   11.8727 H           1 SPM       0.0814
     28 H14        -3.4667    0.2077   14.0773 H           1 SPM       0.0319
     29 H15        -5.1366   -0.3802   14.0621 H           1 SPM       0.0319
     30 H16        -5.7493    2.1738   13.8279 H           1 SPM       0.0319
     31 H17        -4.1129    2.4501   14.4636 H           1 SPM       0.0319
     32 H18        -4.7911    0.9546   16.4444 H           1 SPM       0.0814
     33 H19        -6.4577    1.1300   15.8787 H           1 SPM       0.0814
     34 H20        -4.6246    3.3668   16.4961 H           1 SPM       0.2013
     35 H21        -5.6598    2.6911   17.5905 H           1 SPM       0.2013
     36 H22        -6.7077    4.5929   17.0447 H           1 SPM       0.0816
     37 H23        -7.5664    3.3461   16.1413 H           1 SPM       0.0816
     38 H24        -7.3002    4.6980   14.3414 H           1 SPM       0.0369
     39 H25        -5.6150    4.1161   14.2843 H           1 SPM       0.0369
     40 H26        -6.1148    6.5129   16.0712 H           1 SPM       0.0815
     41 H27        -6.3337    6.7423   14.3120 H           1 SPM       0.0815
     42 H28        -4.1359    7.2296   14.9575 H           1 SPM       0.1994
     43 H29        -4.1476    5.9050   13.9429 H           1 SPM       0.1994
     44 H30        -3.8891    5.7062   15.5867 H           1 SPM       0.1994
@<TRIPOS>BOND
     1     1     2   1
     2     2     3   1
     3     3     4   1
     4     4     5   1
     5     5     6   1
     6     6     7   1
     7     7     8   1
     8     8     9   1
     9     9    10   1
    10    10    11   1
    11    11    12   1
    12    12    13   1
    13    13    14   1
    14     1    15   1
    15     1    16   1
    16     1    17   1
    17     2    18   1
    18     2    19   1
    19     3    20   1
    20     3    21   1
    21     4    22   1
    22     4    23   1
    23     5    24   1
    24     5    25   1
    25     6    26   1
    26     6    27   1
    27     7    28   1
    28     7    29   1
    29     8    30   1
    30     8    31   1
    31     9    32   1
    32     9    33   1
    33    10    34   1
    34    10    35   1
    35    11    36   1
    36    11    37   1
    37    12    38   1
    38    12    39   1
    39    13    40   1
    40    13    41   1
    41    14    42   1
    42    14    43   1
    43    14    44   1
@<TRIPOS>SUBSTRUCTURE
     1  SPM      2

