@<TRIPOS>MOLECULE
3kwa_ligand_031
    44    43
SMALL
GAST_HUCK
****
This file was generated by PARSER (from files_GN.cpp)

@<TRIPOS>ATOM
      1 N1         -2.6215    5.9507    7.0808 N.4         1 SPM       0.2187
      2 C2         -2.7245    5.2894    8.3952 C.3         1 SPM      -0.0305
      3 C3         -1.5959    4.2418    8.5836 C.3         1 SPM       0.0275
      4 C4         -0.9544    4.2599   10.0001 C.3         1 SPM      -0.0288
      5 N5         -1.8377    3.5963   10.9935 N.4         1 SPM       0.2271
      6 C6         -1.3516    3.5167   12.3959 C.3         1 SPM      -0.0335
      7 C7         -0.9994    4.9146   12.9897 C.3         1 SPM      -0.0078
      8 C8         -1.3699    5.1218   14.4908 C.3         1 SPM      -0.0078
      9 C9         -2.9006    5.1146   14.7849 C.3         1 SPM      -0.0335
     10 N10        -3.3784    3.7939   15.2720 N.4         1 SPM       0.2271
     11 C11        -4.8176    3.4709   15.0508 C.3         1 SPM      -0.0288
     12 C12        -5.0069    2.2279   14.1344 C.3         1 SPM       0.0275
     13 C13        -4.9805    0.8597   14.8635 C.3         1 SPM      -0.0305
     14 N14        -3.8797    0.7514   15.8265 N.4         1 SPM       0.2187
     15 H1         -3.3720    6.6526    7.0093 H           1 SPM       0.1994
     16 H2         -2.7267    5.2518    6.3299 H           1 SPM       0.1994
     17 H3         -1.7041    6.4101    7.0096 H           1 SPM       0.1994
     18 H4         -3.7062    4.8020    8.4670 H           1 SPM       0.0815
     19 H5         -2.6502    6.0559    9.1773 H           1 SPM       0.0815
     20 H6         -0.8023    4.4424    7.8577 H           1 SPM       0.0369
     21 H7         -1.9992    3.2414    8.3805 H           1 SPM       0.0369
     22 H8         -0.7558    5.2979   10.2937 H           1 SPM       0.0816
     23 H9          0.0061    3.7252    9.9655 H           1 SPM       0.0816
     24 H10        -1.9882    2.6333   10.6716 H           1 SPM       0.2013
     25 H11        -2.7411    4.0828   11.0040 H           1 SPM       0.2013
     26 H12        -0.4836    2.8498   12.4709 H           1 SPM       0.0814
     27 H13        -2.1717    3.0764   12.9735 H           1 SPM       0.0814
     28 H14        -1.5028    5.6975   12.4069 H           1 SPM       0.0319
     29 H15         0.0801    5.0747   12.8947 H           1 SPM       0.0319
     30 H16        -0.9897    6.1060   14.7880 H           1 SPM       0.0319
     31 H17        -0.8614    4.3756   15.1112 H           1 SPM       0.0319
     32 H18        -3.4447    5.4163   13.8881 H           1 SPM       0.0814
     33 H19        -3.1268    5.8485   15.5685 H           1 SPM       0.0814
     34 H20        -3.2052    3.7612   16.2839 H           1 SPM       0.2013
     35 H21        -2.8011    3.0600   14.8506 H           1 SPM       0.2013
     36 H22        -5.3522    4.3083   14.5881 H           1 SPM       0.0816
     37 H23        -5.2921    3.2873   16.0198 H           1 SPM       0.0816
     38 H24        -4.2475    2.2321   13.3504 H           1 SPM       0.0369
     39 H25        -5.9838    2.3139   13.6451 H           1 SPM       0.0369
     40 H26        -4.8639    0.0575   14.1319 H           1 SPM       0.0815
     41 H27        -5.9225    0.7003   15.3995 H           1 SPM       0.0815
     42 H28        -3.8773   -0.1840   16.2525 H           1 SPM       0.1994
     43 H29        -4.0027    1.4594   16.5570 H           1 SPM       0.1994
     44 H30        -2.9922    0.9199   15.3536 H           1 SPM       0.1994
@<TRIPOS>BOND
     1     1     2   1
     2     2     3   1
     3     3     4   1
     4     4     5   1
     5     5     6   1
     6     6     7   1
     7     7     8   1
     8     8     9   1
     9     9    10   1
    10    10    11   1
    11    11    12   1
    12    12    13   1
    13    13    14   1
    14     1    15   1
    15     1    16   1
    16     1    17   1
    17     2    18   1
    18     2    19   1
    19     3    20   1
    20     3    21   1
    21     4    22   1
    22     4    23   1
    23     5    24   1
    24     5    25   1
    25     6    26   1
    26     6    27   1
    27     7    28   1
    28     7    29   1
    29     8    30   1
    30     8    31   1
    31     9    32   1
    32     9    33   1
    33    10    34   1
    34    10    35   1
    35    11    36   1
    36    11    37   1
    37    12    38   1
    38    12    39   1
    39    13    40   1
    40    13    41   1
    41    14    42   1
    42    14    43   1
    43    14    44   1
@<TRIPOS>SUBSTRUCTURE
     1  SPM      2

