@<TRIPOS>MOLECULE
3kwa_ligand_037
    44    43
SMALL
GAST_HUCK
****
This file was generated by PARSER (from files_GN.cpp)

@<TRIPOS>ATOM
      1 N1         -1.5201    9.6348   16.3011 N.4         1 SPM       0.2187
      2 C2         -0.9255    8.3466   15.9069 C.3         1 SPM      -0.0305
      3 C3         -2.0127    7.3602   15.3984 C.3         1 SPM       0.0275
      4 C4         -1.5572    5.8655   15.3572 C.3         1 SPM      -0.0288
      5 N5         -1.0852    5.4029   14.0257 N.4         1 SPM       0.2271
      6 C6         -2.0720    4.5855   13.2507 C.3         1 SPM      -0.0335
      7 C7         -1.4542    4.0291   11.9361 C.3         1 SPM      -0.0078
      8 C8         -2.2977    4.3295   10.6616 C.3         1 SPM      -0.0078
      9 C9         -3.8067    3.9464   10.7260 C.3         1 SPM      -0.0335
     10 N10        -4.0997    2.5750   10.2144 N.4         1 SPM       0.2271
     11 C11        -4.6030    1.5674   11.1846 C.3         1 SPM      -0.0288
     12 C12        -3.6290    1.3363   12.3801 C.3         1 SPM       0.0275
     13 C13        -4.2359    0.4573   13.5082 C.3         1 SPM      -0.0305
     14 N14        -4.4192   -0.9431   13.0993 N.4         1 SPM       0.2187
     15 H1         -0.7837   10.2576   16.6540 H           1 SPM       0.1994
     16 H2         -2.2121    9.4793   17.0425 H           1 SPM       0.1994
     17 H3         -1.9774   10.0713   15.4917 H           1 SPM       0.1994
     18 H4         -0.4277    7.9287   16.7843 H           1 SPM       0.0815
     19 H5         -0.1827    8.5211   15.1254 H           1 SPM       0.0815
     20 H6         -2.3431    7.6805   14.4029 H           1 SPM       0.0369
     21 H7         -2.8786    7.4381   16.0694 H           1 SPM       0.0369
     22 H8         -2.3841    5.2294   15.7019 H           1 SPM       0.0816
     23 H9         -0.7453    5.7225   16.0765 H           1 SPM       0.0816
     24 H10        -0.2393    4.8394   14.1803 H           1 SPM       0.2013
     25 H11        -0.8235    6.2248   13.4660 H           1 SPM       0.2013
     26 H12        -2.9499    5.2097   13.0138 H           1 SPM       0.0814
     27 H13        -2.4136    3.7271   13.8487 H           1 SPM       0.0814
     28 H14        -1.3105    2.9455   12.0326 H           1 SPM       0.0319
     29 H15        -0.4656    4.4795   11.7912 H           1 SPM       0.0319
     30 H16        -1.8353    3.8235    9.8088 H           1 SPM       0.0319
     31 H17        -2.2321    5.4074   10.4687 H           1 SPM       0.0319
     32 H18        -4.3448    4.6375   10.0653 H           1 SPM       0.0814
     33 H19        -4.1928    4.1059   11.7395 H           1 SPM       0.0814
     34 H20        -3.2710    2.1954    9.7460 H           1 SPM       0.2013
     35 H21        -4.8385    2.7013    9.5112 H           1 SPM       0.2013
     36 H22        -4.7286    0.6276   10.6257 H           1 SPM       0.0816
     37 H23        -5.5897    1.8801   11.5513 H           1 SPM       0.0816
     38 H24        -3.3641    2.3142   12.8082 H           1 SPM       0.0369
     39 H25        -2.7198    0.8538   12.0012 H           1 SPM       0.0369
     40 H26        -5.1994    0.8657   13.8285 H           1 SPM       0.0815
     41 H27        -3.5592    0.4742   14.3649 H           1 SPM       0.0815
     42 H28        -4.8515   -1.4544   13.8729 H           1 SPM       0.1994
     43 H29        -3.5121   -1.3641   12.8764 H           1 SPM       0.1994
     44 H30        -5.0283   -0.9954   12.2782 H           1 SPM       0.1994
@<TRIPOS>BOND
     1     1     2   1
     2     2     3   1
     3     3     4   1
     4     4     5   1
     5     5     6   1
     6     6     7   1
     7     7     8   1
     8     8     9   1
     9     9    10   1
    10    10    11   1
    11    11    12   1
    12    12    13   1
    13    13    14   1
    14     1    15   1
    15     1    16   1
    16     1    17   1
    17     2    18   1
    18     2    19   1
    19     3    20   1
    20     3    21   1
    21     4    22   1
    22     4    23   1
    23     5    24   1
    24     5    25   1
    25     6    26   1
    26     6    27   1
    27     7    28   1
    28     7    29   1
    29     8    30   1
    30     8    31   1
    31     9    32   1
    32     9    33   1
    33    10    34   1
    34    10    35   1
    35    11    36   1
    36    11    37   1
    37    12    38   1
    38    12    39   1
    39    13    40   1
    40    13    41   1
    41    14    42   1
    42    14    43   1
    43    14    44   1
@<TRIPOS>SUBSTRUCTURE
     1  SPM      2

