@<TRIPOS>MOLECULE
3kwa_ligand_061
    44    43
SMALL
GAST_HUCK
****
This file was generated by PARSER (from files_GN.cpp)

@<TRIPOS>ATOM
      1 N1         -3.1857   -2.5015   11.5685 N.4         1 SPM       0.2187
      2 C2         -4.2824   -1.5478   11.3593 C.3         1 SPM      -0.0305
      3 C3         -4.2718   -0.4242   12.4244 C.3         1 SPM       0.0275
      4 C4         -4.8758    0.9227   11.9327 C.3         1 SPM      -0.0288
      5 N5         -3.8337    1.8775   11.4776 N.4         1 SPM       0.2271
      6 C6         -2.9591    2.4493   12.5337 C.3         1 SPM      -0.0335
      7 C7         -3.0881    3.9806   12.7043 C.3         1 SPM      -0.0078
      8 C8         -4.4781    4.4487   13.2141 C.3         1 SPM      -0.0078
      9 C9         -4.4811    5.8956   13.7733 C.3         1 SPM      -0.0335
     10 N10        -3.7568    5.9994   15.0670 N.4         1 SPM       0.2271
     11 C11        -2.3856    6.5691   15.0491 C.3         1 SPM      -0.0288
     12 C12        -2.3656    8.0095   15.6142 C.3         1 SPM       0.0275
     13 C13        -0.9248    8.5229   15.8558 C.3         1 SPM      -0.0305
     14 N14        -0.9386    9.9221   16.2950 N.4         1 SPM       0.2187
     15 H1         -3.2989   -3.2921   10.9368 H           1 SPM       0.1994
     16 H2         -3.1916   -2.8361   12.5300 H           1 SPM       0.1994
     17 H3         -2.3016   -2.0352   11.3724 H           1 SPM       0.1994
     18 H4         -5.2344   -2.0830   11.4043 H           1 SPM       0.0815
     19 H5         -4.1778   -1.1250   10.3579 H           1 SPM       0.0815
     20 H6         -3.2431   -0.2603   12.7503 H           1 SPM       0.0369
     21 H7         -4.8343   -0.7716   13.2958 H           1 SPM       0.0369
     22 H8         -5.4663    1.3836   12.7277 H           1 SPM       0.0816
     23 H9         -5.5503    0.7391   11.0956 H           1 SPM       0.0816
     24 H10        -4.2935    2.6454   10.9830 H           1 SPM       0.2013
     25 H11        -3.2277    1.3861   10.8128 H           1 SPM       0.2013
     26 H12        -1.9268    2.2233   12.2549 H           1 SPM       0.0814
     27 H13        -3.1338    1.9796   13.5062 H           1 SPM       0.0814
     28 H14        -2.8769    4.4582   11.7457 H           1 SPM       0.0319
     29 H15        -2.3128    4.2851   13.4048 H           1 SPM       0.0319
     30 H16        -4.8434    3.7741   13.9950 H           1 SPM       0.0319
     31 H17        -5.1830    4.4006   12.3811 H           1 SPM       0.0319
     32 H18        -5.5190    6.1827   13.9609 H           1 SPM       0.0814
     33 H19        -4.0867    6.5839   13.0236 H           1 SPM       0.0814
     34 H20        -3.7001    5.0632   15.4696 H           1 SPM       0.2013
     35 H21        -4.3258    6.5683   15.6953 H           1 SPM       0.2013
     36 H22        -1.9565    6.5722   14.0452 H           1 SPM       0.0816
     37 H23        -1.7538    5.9309   15.6711 H           1 SPM       0.0816
     38 H24        -2.9127    8.0356   16.5598 H           1 SPM       0.0369
     39 H25        -2.8734    8.6731   14.9099 H           1 SPM       0.0369
     40 H26        -0.3365    8.4505   14.9392 H           1 SPM       0.0815
     41 H27        -0.4438    7.9255   16.6332 H           1 SPM       0.0815
     42 H28         0.0203   10.2348   16.4633 H           1 SPM       0.1994
     43 H29        -1.4778    9.9985   17.1601 H           1 SPM       0.1994
     44 H30        -1.3654   10.5078   15.5744 H           1 SPM       0.1994
@<TRIPOS>BOND
     1     1     2   1
     2     2     3   1
     3     3     4   1
     4     4     5   1
     5     5     6   1
     6     6     7   1
     7     7     8   1
     8     8     9   1
     9     9    10   1
    10    10    11   1
    11    11    12   1
    12    12    13   1
    13    13    14   1
    14     1    15   1
    15     1    16   1
    16     1    17   1
    17     2    18   1
    18     2    19   1
    19     3    20   1
    20     3    21   1
    21     4    22   1
    22     4    23   1
    23     5    24   1
    24     5    25   1
    25     6    26   1
    26     6    27   1
    27     7    28   1
    28     7    29   1
    29     8    30   1
    30     8    31   1
    31     9    32   1
    32     9    33   1
    33    10    34   1
    34    10    35   1
    35    11    36   1
    36    11    37   1
    37    12    38   1
    38    12    39   1
    39    13    40   1
    40    13    41   1
    41    14    42   1
    42    14    43   1
    43    14    44   1
@<TRIPOS>SUBSTRUCTURE
     1  SPM      2

