@<TRIPOS>MOLECULE
3kwa_ligand_005
    44    43
SMALL
GAST_HUCK
****
This file was generated by PARSER (from files_GN.cpp)

@<TRIPOS>ATOM
      1 N1          2.9413    0.7807    7.9825 N.4         1 SPM       0.2187
      2 C2          2.6964    2.1378    7.4831 C.3         1 SPM      -0.0305
      3 C3          2.1222    3.0378    8.6117 C.3         1 SPM       0.0275
      4 C4          0.9599    3.9589    8.1517 C.3         1 SPM      -0.0288
      5 N5          0.3041    4.7299    9.2401 N.4         1 SPM       0.2271
      6 C6         -0.6209    4.0011   10.1487 C.3         1 SPM      -0.0335
      7 C7         -1.1903    4.9693   11.2194 C.3         1 SPM      -0.0078
      8 C8         -1.9011    4.2902   12.4262 C.3         1 SPM      -0.0078
      9 C9         -3.2552    3.5767   12.1336 C.3         1 SPM      -0.0335
     10 N10        -3.1375    2.1086   12.2826 N.4         1 SPM       0.2271
     11 C11        -4.4187    1.3696   12.4084 C.3         1 SPM      -0.0288
     12 C12        -4.1575   -0.1576   12.5465 C.3         1 SPM       0.0275
     13 C13        -4.2371   -0.7731   13.9716 C.3         1 SPM      -0.0305
     14 N14        -4.0247    0.1591   15.0846 N.4         1 SPM       0.2187
     15 H1          3.3679    0.2166    7.2436 H           1 SPM       0.1994
     16 H2          2.0361    0.3797    8.2513 H           1 SPM       0.1994
     17 H3          3.5651    0.8232    8.7951 H           1 SPM       0.1994
     18 H4          1.9899    2.0655    6.6514 H           1 SPM       0.0815
     19 H5          3.6316    2.5622    7.1062 H           1 SPM       0.0815
     20 H6          2.9266    3.6524    9.0272 H           1 SPM       0.0369
     21 H7          1.7557    2.4001    9.4158 H           1 SPM       0.0369
     22 H8          0.2036    3.3631    7.6320 H           1 SPM       0.0816
     23 H9          1.3575    4.6824    7.4370 H           1 SPM       0.0816
     24 H10        -0.2338    5.4812    8.7976 H           1 SPM       0.2013
     25 H11         1.0382    5.1609    9.8111 H           1 SPM       0.2013
     26 H12        -0.0793    3.1954   10.6542 H           1 SPM       0.0814
     27 H13        -1.4449    3.5675    9.5692 H           1 SPM       0.0814
     28 H14        -1.8761    5.6728   10.7328 H           1 SPM       0.0319
     29 H15        -0.3487    5.5506   11.6155 H           1 SPM       0.0319
     30 H16        -2.0839    5.0820   13.1577 H           1 SPM       0.0319
     31 H17        -1.1977    3.5936   12.8941 H           1 SPM       0.0319
     32 H18        -3.6090    3.8169   11.1265 H           1 SPM       0.0814
     33 H19        -4.0016    3.9402   12.8478 H           1 SPM       0.0814
     34 H20        -2.5683    1.9117   13.1096 H           1 SPM       0.2013
     35 H21        -2.6408    1.7472   11.4620 H           1 SPM       0.2013
     36 H22        -5.0076    1.5521   11.4996 H           1 SPM       0.0816
     37 H23        -4.9918    1.7338   13.2683 H           1 SPM       0.0816
     38 H24        -3.1739   -0.3877   12.1261 H           1 SPM       0.0369
     39 H25        -4.8905   -0.6851   11.9272 H           1 SPM       0.0369
     40 H26        -3.4929   -1.5689   14.0509 H           1 SPM       0.0815
     41 H27        -5.2150   -1.2279   14.1213 H           1 SPM       0.0815
     42 H28        -3.8925   -0.3739   15.9505 H           1 SPM       0.1994
     43 H29        -4.8403    0.7656   15.1821 H           1 SPM       0.1994
     44 H30        -3.2019    0.7362   14.9191 H           1 SPM       0.1994
@<TRIPOS>BOND
     1     1     2   1
     2     2     3   1
     3     3     4   1
     4     4     5   1
     5     5     6   1
     6     6     7   1
     7     7     8   1
     8     8     9   1
     9     9    10   1
    10    10    11   1
    11    11    12   1
    12    12    13   1
    13    13    14   1
    14     1    15   1
    15     1    16   1
    16     1    17   1
    17     2    18   1
    18     2    19   1
    19     3    20   1
    20     3    21   1
    21     4    22   1
    22     4    23   1
    23     5    24   1
    24     5    25   1
    25     6    26   1
    26     6    27   1
    27     7    28   1
    28     7    29   1
    29     8    30   1
    30     8    31   1
    31     9    32   1
    32     9    33   1
    33    10    34   1
    34    10    35   1
    35    11    36   1
    36    11    37   1
    37    12    38   1
    38    12    39   1
    39    13    40   1
    40    13    41   1
    41    14    42   1
    42    14    43   1
    43    14    44   1
@<TRIPOS>SUBSTRUCTURE
     1  SPM      2

