@<TRIPOS>MOLECULE
3kwa_ligand_054
    44    43
SMALL
GAST_HUCK
****
This file was generated by PARSER (from files_GN.cpp)

@<TRIPOS>ATOM
      1 N1         -2.2354    3.8429   15.8572 N.4         1 SPM       0.2187
      2 C2         -1.6373    4.9451   15.0938 C.3         1 SPM      -0.0305
      3 C3         -2.7152    5.7016   14.2797 C.3         1 SPM       0.0275
      4 C4         -2.1352    6.8032   13.3522 C.3         1 SPM      -0.0288
      5 N5         -3.1483    7.6738   12.7128 N.4         1 SPM       0.2271
      6 C6         -4.1882    7.0858   11.8228 C.3         1 SPM      -0.0335
      7 C7         -3.6403    6.5228   10.4725 C.3         1 SPM      -0.0078
      8 C8         -4.2536    5.1663   10.0014 C.3         1 SPM      -0.0078
      9 C9         -3.9867    3.9821   10.9631 C.3         1 SPM      -0.0335
     10 N10        -4.1440    2.6499   10.3310 N.4         1 SPM       0.2271
     11 C11        -4.5072    1.5268   11.2305 C.3         1 SPM      -0.0288
     12 C12        -3.5295    1.2689   12.4139 C.3         1 SPM       0.0275
     13 C13        -4.1628    0.4320   13.5541 C.3         1 SPM      -0.0305
     14 N14        -4.3787   -0.9684   13.1760 N.4         1 SPM       0.2187
     15 H1         -1.5178    3.3842   16.4211 H           1 SPM       0.1994
     16 H2         -2.6401    3.1632   15.2113 H           1 SPM       0.1994
     17 H3         -2.9712    4.2056   16.4651 H           1 SPM       0.1994
     18 H4         -0.8776    4.5262   14.4319 H           1 SPM       0.0815
     19 H5         -1.1507    5.6244   15.7941 H           1 SPM       0.0815
     20 H6         -3.4192    6.1622   14.9732 H           1 SPM       0.0369
     21 H7         -3.2611    4.9751   13.6759 H           1 SPM       0.0369
     22 H8         -1.4973    6.3497   12.5910 H           1 SPM       0.0816
     23 H9         -1.5041    7.4540   13.9604 H           1 SPM       0.0816
     24 H10        -2.6453    8.3777   12.1735 H           1 SPM       0.2013
     25 H11        -3.6396    8.1657   13.4612 H           1 SPM       0.2013
     26 H12        -4.9074    7.8759   11.5945 H           1 SPM       0.0814
     27 H13        -4.7395    6.3236   12.3727 H           1 SPM       0.0814
     28 H14        -2.5574    6.4058   10.5308 H           1 SPM       0.0319
     29 H15        -3.8358    7.2593    9.6808 H           1 SPM       0.0319
     30 H16        -3.8362    4.9305    9.0213 H           1 SPM       0.0319
     31 H17        -5.3337    5.2827    9.8770 H           1 SPM       0.0319
     32 H18        -4.6693    4.0720   11.8078 H           1 SPM       0.0814
     33 H19        -2.9655    4.0528   11.3347 H           1 SPM       0.0814
     34 H20        -3.2643    2.4038    9.8717 H           1 SPM       0.2013
     35 H21        -4.8774    2.7283    9.6210 H           1 SPM       0.2013
     36 H22        -4.5542    0.6248   10.6159 H           1 SPM       0.0816
     37 H23        -5.5111    1.7093   11.6156 H           1 SPM       0.0816
     38 H24        -3.2243    2.2238   12.8501 H           1 SPM       0.0369
     39 H25        -2.6281    0.7721   12.0496 H           1 SPM       0.0369
     40 H26        -5.1199    0.8642   13.8556 H           1 SPM       0.0815
     41 H27        -3.5034    0.4492   14.4241 H           1 SPM       0.0815
     42 H28        -4.8055   -1.4662   13.9588 H           1 SPM       0.1994
     43 H29        -3.4865   -1.4115   12.9453 H           1 SPM       0.1994
     44 H30        -4.9997   -1.0265   12.3646 H           1 SPM       0.1994
@<TRIPOS>BOND
     1     1     2   1
     2     2     3   1
     3     3     4   1
     4     4     5   1
     5     5     6   1
     6     6     7   1
     7     7     8   1
     8     8     9   1
     9     9    10   1
    10    10    11   1
    11    11    12   1
    12    12    13   1
    13    13    14   1
    14     1    15   1
    15     1    16   1
    16     1    17   1
    17     2    18   1
    18     2    19   1
    19     3    20   1
    20     3    21   1
    21     4    22   1
    22     4    23   1
    23     5    24   1
    24     5    25   1
    25     6    26   1
    26     6    27   1
    27     7    28   1
    28     7    29   1
    29     8    30   1
    30     8    31   1
    31     9    32   1
    32     9    33   1
    33    10    34   1
    34    10    35   1
    35    11    36   1
    36    11    37   1
    37    12    38   1
    38    12    39   1
    39    13    40   1
    40    13    41   1
    41    14    42   1
    42    14    43   1
    43    14    44   1
@<TRIPOS>SUBSTRUCTURE
     1  SPM      2

