@<TRIPOS>MOLECULE
3kwa_ligand_055
    44    43
SMALL
GAST_HUCK
****
This file was generated by PARSER (from files_GN.cpp)

@<TRIPOS>ATOM
      1 N1         -7.2262    9.1872    9.3095 N.4         1 SPM       0.2187
      2 C2         -8.5316    8.5427    9.1217 C.3         1 SPM      -0.0305
      3 C3         -8.5524    7.4687    8.0047 C.3         1 SPM       0.0275
      4 C4         -7.4165    6.4117    8.0856 C.3         1 SPM      -0.0288
      5 N5         -6.2534    6.7979    7.2532 N.4         1 SPM       0.2271
      6 C6         -5.0139    5.9796    7.3380 C.3         1 SPM      -0.0335
      7 C7         -4.0980    6.3158    8.5530 C.3         1 SPM      -0.0078
      8 C8         -4.2452    5.3716    9.7892 C.3         1 SPM      -0.0078
      9 C9         -3.2855    4.1444    9.8076 C.3         1 SPM      -0.0335
     10 N10        -3.9639    2.8652   10.1272 N.4         1 SPM       0.2271
     11 C11        -4.4364    2.6262   11.5151 C.3         1 SPM      -0.0288
     12 C12        -3.4128    1.8848   12.4256 C.3         1 SPM       0.0275
     13 C13        -4.0609    0.8322   13.3675 C.3         1 SPM      -0.0305
     14 N14        -4.3373   -0.4321   12.6689 N.4         1 SPM       0.2187
     15 H1         -7.3045    9.8920   10.0468 H           1 SPM       0.1994
     16 H2         -6.9357    9.6375    8.4422 H           1 SPM       0.1994
     17 H3         -6.5324    8.4918    9.5876 H           1 SPM       0.1994
     18 H4         -9.2586    9.3213    8.8728 H           1 SPM       0.0815
     19 H5         -8.8302    8.0947   10.0725 H           1 SPM       0.0815
     20 H6         -8.5302    7.9653    7.0284 H           1 SPM       0.0369
     21 H7         -9.5123    6.9496    8.0791 H           1 SPM       0.0369
     22 H8         -7.7976    5.4545    7.7152 H           1 SPM       0.0816
     23 H9         -7.1321    6.2842    9.1276 H           1 SPM       0.0816
     24 H10        -6.0126    7.7664    7.4618 H           1 SPM       0.2013
     25 H11        -6.5692    6.7614    6.2793 H           1 SPM       0.2013
     26 H12        -4.4522    6.2065    6.4250 H           1 SPM       0.0814
     27 H13        -5.2471    4.9127    7.3079 H           1 SPM       0.0814
     28 H14        -4.3052    7.3421    8.8620 H           1 SPM       0.0319
     29 H15        -3.0521    6.3040    8.2233 H           1 SPM       0.0319
     30 H16        -5.2702    5.0138    9.8545 H           1 SPM       0.0319
     31 H17        -4.0593    5.9562   10.6936 H           1 SPM       0.0319
     32 H18        -2.4653    4.3232   10.5068 H           1 SPM       0.0814
     33 H19        -2.8526    4.0073    8.8170 H           1 SPM       0.0814
     34 H20        -3.3272    2.1070    9.8804 H           1 SPM       0.2013
     35 H21        -4.7843    2.8131    9.5095 H           1 SPM       0.2013
     36 H22        -5.3375    2.0168   11.4150 H           1 SPM       0.0816
     37 H23        -4.7428    3.5629   11.9920 H           1 SPM       0.0816
     38 H24        -2.8887    2.6230   13.0367 H           1 SPM       0.0369
     39 H25        -2.6565    1.3810   11.8159 H           1 SPM       0.0369
     40 H26        -4.9915    1.2155   13.7891 H           1 SPM       0.0815
     41 H27        -3.3829    0.6116   14.1944 H           1 SPM       0.0815
     42 H28        -4.7407   -1.1038   13.3237 H           1 SPM       0.1994
     43 H29        -3.4670   -0.8121   12.2916 H           1 SPM       0.1994
     44 H30        -4.9957   -0.2725   11.9023 H           1 SPM       0.1994
@<TRIPOS>BOND
     1     1     2   1
     2     2     3   1
     3     3     4   1
     4     4     5   1
     5     5     6   1
     6     6     7   1
     7     7     8   1
     8     8     9   1
     9     9    10   1
    10    10    11   1
    11    11    12   1
    12    12    13   1
    13    13    14   1
    14     1    15   1
    15     1    16   1
    16     1    17   1
    17     2    18   1
    18     2    19   1
    19     3    20   1
    20     3    21   1
    21     4    22   1
    22     4    23   1
    23     5    24   1
    24     5    25   1
    25     6    26   1
    26     6    27   1
    27     7    28   1
    28     7    29   1
    29     8    30   1
    30     8    31   1
    31     9    32   1
    32     9    33   1
    33    10    34   1
    34    10    35   1
    35    11    36   1
    36    11    37   1
    37    12    38   1
    38    12    39   1
    39    13    40   1
    40    13    41   1
    41    14    42   1
    42    14    43   1
    43    14    44   1
@<TRIPOS>SUBSTRUCTURE
     1  SPM      2

