@<TRIPOS>MOLECULE
3kwa_ligand_032
    44    43
SMALL
GAST_HUCK
****
This file was generated by PARSER (from files_GN.cpp)

@<TRIPOS>ATOM
      1 N1         -0.1010    5.3124   12.3709 N.4         1 SPM       0.2187
      2 C2          0.1410    4.5434   11.1412 C.3         1 SPM      -0.0305
      3 C3         -0.3703    5.2797    9.8755 C.3         1 SPM       0.0275
      4 C4         -0.0405    4.5356    8.5419 C.3         1 SPM      -0.0288
      5 N5         -1.2537    4.1820    7.7561 N.4         1 SPM       0.2271
      6 C6         -1.7545    5.2195    6.8096 C.3         1 SPM      -0.0335
      7 C7         -2.9016    6.1308    7.3347 C.3         1 SPM      -0.0078
      8 C8         -4.3410    5.5667    7.1798 C.3         1 SPM      -0.0078
      9 C9         -5.4388    6.6744    7.1767 C.3         1 SPM      -0.0335
     10 N10        -6.8033    6.0851    7.1377 N.4         1 SPM       0.2271
     11 C11        -7.7871    6.5212    8.1603 C.3         1 SPM      -0.0288
     12 C12        -8.3399    7.9539    7.9414 C.3         1 SPM       0.0275
     13 C13        -9.7676    8.1410    8.5154 C.3         1 SPM      -0.0305
     14 N14       -10.2899    9.4923    8.2638 N.4         1 SPM       0.2187
     15 H1          0.3524    4.8413   13.1591 H           1 SPM       0.1994
     16 H2         -1.1094    5.3658   12.5409 H           1 SPM       0.1994
     17 H3          0.2824    6.2569   12.2731 H           1 SPM       0.1994
     18 H4         -0.3582    3.5740   11.2460 H           1 SPM       0.0815
     19 H5          1.2189    4.3749   11.0496 H           1 SPM       0.0815
     20 H6          0.0873    6.2753    9.8614 H           1 SPM       0.0369
     21 H7         -1.4508    5.4254    9.9649 H           1 SPM       0.0369
     22 H8          0.5030    3.6123    8.7501 H           1 SPM       0.0816
     23 H9          0.6329    5.1492    7.9334 H           1 SPM       0.0816
     24 H10        -1.9925    3.9228    8.4099 H           1 SPM       0.2013
     25 H11        -1.0216    3.3506    7.2074 H           1 SPM       0.2013
     26 H12        -2.0925    4.7090    5.9045 H           1 SPM       0.0814
     27 H13        -0.9417    5.8849    6.5069 H           1 SPM       0.0814
     28 H14        -2.8518    7.0751    6.7841 H           1 SPM       0.0319
     29 H15        -2.7200    6.3585    8.3871 H           1 SPM       0.0319
     30 H16        -4.5455    4.8786    8.0050 H           1 SPM       0.0319
     31 H17        -4.4137    5.0089    6.2401 H           1 SPM       0.0319
     32 H18        -5.3230    7.3080    6.2913 H           1 SPM       0.0814
     33 H19        -5.3163    7.2959    8.0701 H           1 SPM       0.0814
     34 H20        -6.6993    5.0798    7.2600 H           1 SPM       0.2013
     35 H21        -7.2148    6.2461    6.2116 H           1 SPM       0.2013
     36 H22        -7.3385    6.4517    9.1539 H           1 SPM       0.0816
     37 H23        -8.6187    5.8119    8.1281 H           1 SPM       0.0816
     38 H24        -8.3615    8.1763    6.8730 H           1 SPM       0.0369
     39 H25        -7.6743    8.6756    8.4201 H           1 SPM       0.0369
     40 H26        -9.7629    7.9794    9.5947 H           1 SPM       0.0815
     41 H27       -10.4571    7.4259    8.0616 H           1 SPM       0.0815
     42 H28       -11.2292    9.5742    8.6658 H           1 SPM       0.1994
     43 H29       -10.3406    9.6651    7.2570 H           1 SPM       0.1994
     44 H30        -9.6772   10.1882    8.6969 H           1 SPM       0.1994
@<TRIPOS>BOND
     1     1     2   1
     2     2     3   1
     3     3     4   1
     4     4     5   1
     5     5     6   1
     6     6     7   1
     7     7     8   1
     8     8     9   1
     9     9    10   1
    10    10    11   1
    11    11    12   1
    12    12    13   1
    13    13    14   1
    14     1    15   1
    15     1    16   1
    16     1    17   1
    17     2    18   1
    18     2    19   1
    19     3    20   1
    20     3    21   1
    21     4    22   1
    22     4    23   1
    23     5    24   1
    24     5    25   1
    25     6    26   1
    26     6    27   1
    27     7    28   1
    28     7    29   1
    29     8    30   1
    30     8    31   1
    31     9    32   1
    32     9    33   1
    33    10    34   1
    34    10    35   1
    35    11    36   1
    36    11    37   1
    37    12    38   1
    38    12    39   1
    39    13    40   1
    40    13    41   1
    41    14    42   1
    42    14    43   1
    43    14    44   1
@<TRIPOS>SUBSTRUCTURE
     1  SPM      2

