@<TRIPOS>MOLECULE
3kwa_ligand_046
    44    43
SMALL
GAST_HUCK
****
This file was generated by PARSER (from files_GN.cpp)

@<TRIPOS>ATOM
      1 N1         -3.7379    0.8550   12.9382 N.4         1 SPM       0.2187
      2 C2         -4.7418    1.8674   12.5803 C.3         1 SPM      -0.0305
      3 C3         -4.1143    3.0849   11.8485 C.3         1 SPM       0.0275
      4 C4         -3.2643    4.0262   12.7491 C.3         1 SPM      -0.0288
      5 N5         -4.0780    4.9340   13.6026 N.4         1 SPM       0.2271
      6 C6         -4.7188    6.0918   12.9240 C.3         1 SPM      -0.0335
      7 C7         -3.7411    7.2988   12.7995 C.3         1 SPM      -0.0078
      8 C8         -4.1978    8.3855   11.7790 C.3         1 SPM      -0.0078
      9 C9         -3.5965    8.2356   10.3534 C.3         1 SPM      -0.0335
     10 N10        -4.0204    6.9874    9.6773 N.4         1 SPM       0.2271
     11 C11        -3.5063    6.8013    8.3014 C.3         1 SPM      -0.0288
     12 C12        -3.9200    5.4161    7.7144 C.3         1 SPM       0.0275
     13 C13        -4.8255    5.4940    6.4607 C.3         1 SPM      -0.0305
     14 N14        -6.1766    5.9781    6.7753 N.4         1 SPM       0.2187
     15 H1         -4.2081    0.0585   13.3785 H           1 SPM       0.1994
     16 H2         -3.0535    1.2502   13.5932 H           1 SPM       0.1994
     17 H3         -3.2565    0.5399   12.0894 H           1 SPM       0.1994
     18 H4         -5.2640    2.1923   13.4837 H           1 SPM       0.0815
     19 H5         -5.4759    1.3980   11.9192 H           1 SPM       0.0815
     20 H6         -4.9158    3.6637   11.3771 H           1 SPM       0.0369
     21 H7         -3.4712    2.7090   11.0447 H           1 SPM       0.0369
     22 H8         -2.5845    4.6084   12.1173 H           1 SPM       0.0816
     23 H9         -2.6413    3.4154   13.4077 H           1 SPM       0.0816
     24 H10        -3.4650    5.2981   14.3414 H           1 SPM       0.2013
     25 H11        -4.8131    4.3798   14.0535 H           1 SPM       0.2013
     26 H12        -5.5717    6.4043   13.5379 H           1 SPM       0.0814
     27 H13        -5.1082    5.7955   11.9449 H           1 SPM       0.0814
     28 H14        -2.7364    6.9447   12.5311 H           1 SPM       0.0319
     29 H15        -3.6679    7.7650   13.7917 H           1 SPM       0.0319
     30 H16        -3.8801    9.3640   12.1569 H           1 SPM       0.0319
     31 H17        -5.2906    8.4051   11.7090 H           1 SPM       0.0319
     32 H18        -2.5025    8.2552   10.4280 H           1 SPM       0.0814
     33 H19        -3.9126    9.0960    9.7526 H           1 SPM       0.0814
     34 H20        -5.0421    6.9711    9.6399 H           1 SPM       0.2013
     35 H21        -3.7020    6.1958   10.2379 H           1 SPM       0.2013
     36 H22        -2.4132    6.8705    8.3184 H           1 SPM       0.0816
     37 H23        -3.8767    7.6214    7.6776 H           1 SPM       0.0816
     38 H24        -4.4291    4.8102    8.4699 H           1 SPM       0.0369
     39 H25        -3.0148    4.8708    7.4309 H           1 SPM       0.0369
     40 H26        -4.9160    4.4965    6.0211 H           1 SPM       0.0815
     41 H27        -4.3742    6.1594    5.7188 H           1 SPM       0.0815
     42 H28        -6.7327    6.0100    5.9163 H           1 SPM       0.1994
     43 H29        -6.1225    6.9161    7.1797 H           1 SPM       0.1994
     44 H30        -6.6192    5.3425    7.4430 H           1 SPM       0.1994
@<TRIPOS>BOND
     1     1     2   1
     2     2     3   1
     3     3     4   1
     4     4     5   1
     5     5     6   1
     6     6     7   1
     7     7     8   1
     8     8     9   1
     9     9    10   1
    10    10    11   1
    11    11    12   1
    12    12    13   1
    13    13    14   1
    14     1    15   1
    15     1    16   1
    16     1    17   1
    17     2    18   1
    18     2    19   1
    19     3    20   1
    20     3    21   1
    21     4    22   1
    22     4    23   1
    23     5    24   1
    24     5    25   1
    25     6    26   1
    26     6    27   1
    27     7    28   1
    28     7    29   1
    29     8    30   1
    30     8    31   1
    31     9    32   1
    32     9    33   1
    33    10    34   1
    34    10    35   1
    35    11    36   1
    36    11    37   1
    37    12    38   1
    38    12    39   1
    39    13    40   1
    40    13    41   1
    41    14    42   1
    42    14    43   1
    43    14    44   1
@<TRIPOS>SUBSTRUCTURE
     1  SPM      2

