@<TRIPOS>MOLECULE
3kwa_ligand_041
    44    43
SMALL
GAST_HUCK
****
This file was generated by PARSER (from files_GN.cpp)

@<TRIPOS>ATOM
      1 N1         -3.9439    1.6317   10.7592 N.4         1 SPM       0.2187
      2 C2         -3.4980    1.2064   12.0970 C.3         1 SPM      -0.0305
      3 C3         -4.7161    0.7420   12.9406 C.3         1 SPM       0.0275
      4 C4         -4.3584   -0.2552   14.0757 C.3         1 SPM      -0.0288
      5 N5         -3.9902    0.3846   15.3687 N.4         1 SPM       0.2271
      6 C6         -5.0136    1.2604   15.9928 C.3         1 SPM      -0.0335
      7 C7         -4.4246    2.6385   16.3972 C.3         1 SPM      -0.0078
      8 C8         -3.6520    3.4023   15.2816 C.3         1 SPM      -0.0078
      9 C9         -4.3001    4.7465   14.8483 C.3         1 SPM      -0.0335
     10 N10        -3.3619    5.6709   14.1561 N.4         1 SPM       0.2271
     11 C11        -2.3829    6.4540   14.9513 C.3         1 SPM      -0.0288
     12 C12        -2.9787    7.7078   15.6456 C.3         1 SPM       0.0275
     13 C13        -1.9405    8.5491   16.4456 C.3         1 SPM      -0.0305
     14 N14        -1.7344    9.8866   15.8778 N.4         1 SPM       0.2187
     15 H1         -3.1162    1.7873   10.1747 H           1 SPM       0.1994
     16 H2         -4.4801    2.5054   10.8493 H           1 SPM       0.1994
     17 H3         -4.5285    0.8925   10.3432 H           1 SPM       0.1994
     18 H4         -2.9825    2.0507   12.5731 H           1 SPM       0.0815
     19 H5         -2.7817    0.3811   11.9951 H           1 SPM       0.0815
     20 H6         -5.4460    0.2424   12.2794 H           1 SPM       0.0369
     21 H7         -5.1990    1.6237   13.3932 H           1 SPM       0.0369
     22 H8         -3.5147   -0.8833   13.7836 H           1 SPM       0.0816
     23 H9         -5.2006   -0.9265   14.2559 H           1 SPM       0.0816
     24 H10        -3.1355    0.9303   15.2129 H           1 SPM       0.2013
     25 H11        -3.7666   -0.3722   16.0357 H           1 SPM       0.2013
     26 H12        -5.3809    0.7581   16.9076 H           1 SPM       0.0814
     27 H13        -5.8679    1.4284   15.3092 H           1 SPM       0.0814
     28 H14        -3.7386    2.4737   17.2348 H           1 SPM       0.0319
     29 H15        -5.2396    3.2636   16.7800 H           1 SPM       0.0319
     30 H16        -3.5367    2.7607   14.3920 H           1 SPM       0.0319
     31 H17        -2.6409    3.6119   15.6524 H           1 SPM       0.0319
     32 H18        -4.7580    5.2397   15.7071 H           1 SPM       0.0814
     33 H19        -5.1000    4.5255   14.1381 H           1 SPM       0.0814
     34 H20        -3.9261    6.3334   13.6184 H           1 SPM       0.2013
     35 H21        -2.8304    5.1089   13.4816 H           1 SPM       0.2013
     36 H22        -1.6052    6.7867   14.2591 H           1 SPM       0.0816
     37 H23        -1.9036    5.8093   15.6941 H           1 SPM       0.0816
     38 H24        -3.7558    7.3834   16.3435 H           1 SPM       0.0369
     39 H25        -3.4636    8.3361   14.8954 H           1 SPM       0.0369
     40 H26        -0.9731    8.0404   16.4949 H           1 SPM       0.0815
     41 H27        -2.2948    8.6853   17.4708 H           1 SPM       0.0815
     42 H28        -1.0538   10.3927   16.4454 H           1 SPM       0.1994
     43 H29        -2.6243   10.3951   15.8825 H           1 SPM       0.1994
     44 H30        -1.3900    9.8083   14.9162 H           1 SPM       0.1994
@<TRIPOS>BOND
     1     1     2   1
     2     2     3   1
     3     3     4   1
     4     4     5   1
     5     5     6   1
     6     6     7   1
     7     7     8   1
     8     8     9   1
     9     9    10   1
    10    10    11   1
    11    11    12   1
    12    12    13   1
    13    13    14   1
    14     1    15   1
    15     1    16   1
    16     1    17   1
    17     2    18   1
    18     2    19   1
    19     3    20   1
    20     3    21   1
    21     4    22   1
    22     4    23   1
    23     5    24   1
    24     5    25   1
    25     6    26   1
    26     6    27   1
    27     7    28   1
    28     7    29   1
    29     8    30   1
    30     8    31   1
    31     9    32   1
    32     9    33   1
    33    10    34   1
    34    10    35   1
    35    11    36   1
    36    11    37   1
    37    12    38   1
    38    12    39   1
    39    13    40   1
    40    13    41   1
    41    14    42   1
    42    14    43   1
    43    14    44   1
@<TRIPOS>SUBSTRUCTURE
     1  SPM      2

