@<TRIPOS>MOLECULE
3kwa_ligand_003
    44    43
SMALL
GAST_HUCK
****
This file was generated by PARSER (from files_GN.cpp)

@<TRIPOS>ATOM
      1 N1         -1.4279    2.2286   12.2022 N.4         1 SPM       0.2187
      2 C2         -1.4437    3.6986   12.1381 C.3         1 SPM      -0.0305
      3 C3         -2.8726    4.3116   12.0910 C.3         1 SPM       0.0275
      4 C4         -3.9294    3.5372   11.2580 C.3         1 SPM      -0.0288
      5 N5         -3.6581    3.4017    9.8006 N.4         1 SPM       0.2271
      6 C6         -3.0264    4.5310    9.0663 C.3         1 SPM      -0.0335
      7 C7         -3.9974    5.7177    8.7890 C.3         1 SPM      -0.0078
      8 C8         -4.3676    5.9234    7.2880 C.3         1 SPM      -0.0078
      9 C9         -5.6168    6.8275    7.1098 C.3         1 SPM      -0.0335
     10 N10        -6.8733    6.0353    7.1202 N.4         1 SPM       0.2271
     11 C11        -7.9319    6.3955    8.0914 C.3         1 SPM      -0.0288
     12 C12        -8.4097    7.8729    7.9975 C.3         1 SPM       0.0275
     13 C13        -9.8446    8.0726    8.5427 C.3         1 SPM      -0.0305
     14 N14       -10.3416    9.4217    8.2435 N.4         1 SPM       0.2187
     15 H1         -0.4661    1.9251   12.4150 H           1 SPM       0.1994
     16 H2         -1.7112    1.8446   11.2948 H           1 SPM       0.1994
     17 H3         -2.0667    1.9061   12.9396 H           1 SPM       0.1994
     18 H4         -0.8699    4.0095   11.2585 H           1 SPM       0.0815
     19 H5         -0.9323    4.0821   13.0329 H           1 SPM       0.0815
     20 H6         -2.7968    5.3282   11.6926 H           1 SPM       0.0369
     21 H7         -3.2483    4.3854   13.1203 H           1 SPM       0.0369
     22 H8         -4.9091    4.0089   11.4050 H           1 SPM       0.0816
     23 H9         -4.0007    2.5175   11.6628 H           1 SPM       0.0816
     24 H10        -4.5728    3.2318    9.3608 H           1 SPM       0.2013
     25 H11        -3.0793    2.5603    9.6676 H           1 SPM       0.2013
     26 H12        -2.6682    4.1116    8.1277 H           1 SPM       0.0814
     27 H13        -2.1547    4.8898    9.6204 H           1 SPM       0.0814
     28 H14        -3.5293    6.6428    9.1561 H           1 SPM       0.0319
     29 H15        -4.9285    5.5738    9.3547 H           1 SPM       0.0319
     30 H16        -4.5606    4.9531    6.8176 H           1 SPM       0.0319
     31 H17        -3.5142    6.3852    6.7768 H           1 SPM       0.0319
     32 H18        -5.5507    7.3177    6.1405 H           1 SPM       0.0814
     33 H19        -5.6034    7.6067    7.8763 H           1 SPM       0.0814
     34 H20        -6.6370    5.0601    7.3069 H           1 SPM       0.2013
     35 H21        -7.2841    6.0773    6.1841 H           1 SPM       0.2013
     36 H22        -7.5964    6.1746    9.1137 H           1 SPM       0.0816
     37 H23        -8.7781    5.7323    7.8780 H           1 SPM       0.0816
     38 H24        -8.3765    8.1985    6.9535 H           1 SPM       0.0369
     39 H25        -7.7221    8.5055    8.5657 H           1 SPM       0.0369
     40 H26        -9.8538    7.9260    9.6247 H           1 SPM       0.0815
     41 H27       -10.5211    7.3486    8.0822 H           1 SPM       0.0815
     42 H28       -11.2870    9.5147    8.6264 H           1 SPM       0.1994
     43 H29       -10.3662    9.5579    7.2254 H           1 SPM       0.1994
     44 H30        -9.7258   10.1215    8.6707 H           1 SPM       0.1994
@<TRIPOS>BOND
     1     1     2   1
     2     2     3   1
     3     3     4   1
     4     4     5   1
     5     5     6   1
     6     6     7   1
     7     7     8   1
     8     8     9   1
     9     9    10   1
    10    10    11   1
    11    11    12   1
    12    12    13   1
    13    13    14   1
    14     1    15   1
    15     1    16   1
    16     1    17   1
    17     2    18   1
    18     2    19   1
    19     3    20   1
    20     3    21   1
    21     4    22   1
    22     4    23   1
    23     5    24   1
    24     5    25   1
    25     6    26   1
    26     6    27   1
    27     7    28   1
    28     7    29   1
    29     8    30   1
    30     8    31   1
    31     9    32   1
    32     9    33   1
    33    10    34   1
    34    10    35   1
    35    11    36   1
    36    11    37   1
    37    12    38   1
    38    12    39   1
    39    13    40   1
    40    13    41   1
    41    14    42   1
    42    14    43   1
    43    14    44   1
@<TRIPOS>SUBSTRUCTURE
     1  SPM      2

