@<TRIPOS>MOLECULE
3kwa_ligand_015
    44    43
SMALL
GAST_HUCK
****
This file was generated by PARSER (from files_GN.cpp)

@<TRIPOS>ATOM
      1 N1         -4.2719   -1.7261   11.9160 N.4         1 SPM       0.2187
      2 C2         -4.7578   -0.8035   10.8752 C.3         1 SPM      -0.0305
      3 C3         -4.9652    0.6701   11.3348 C.3         1 SPM       0.0275
      4 C4         -4.2382    1.0937   12.6302 C.3         1 SPM      -0.0288
      5 N5         -3.0217    1.9109   12.3788 N.4         1 SPM       0.2271
      6 C6         -3.1978    3.3822   12.2502 C.3         1 SPM      -0.0335
      7 C7         -3.6358    3.8498   10.8305 C.3         1 SPM      -0.0078
      8 C8         -3.3776    5.3747   10.6095 C.3         1 SPM      -0.0078
      9 C9         -4.5760    6.2842   11.0043 C.3         1 SPM      -0.0335
     10 N10        -5.5782    6.4936    9.9216 N.4         1 SPM       0.2271
     11 C11        -5.2573    7.5388    8.9072 C.3         1 SPM      -0.0288
     12 C12        -4.6081    6.9506    7.6209 C.3         1 SPM       0.0275
     13 C13        -5.5866    6.7636    6.4378 C.3         1 SPM      -0.0305
     14 N14        -6.8084    6.0401    6.8093 N.4         1 SPM       0.2187
     15 H1         -4.3944   -2.6889   11.5799 H           1 SPM       0.1994
     16 H2         -4.8072   -1.5881   12.7863 H           1 SPM       0.1994
     17 H3         -3.2706   -1.5553   12.0918 H           1 SPM       0.1994
     18 H4         -5.7272   -1.1836   10.5296 H           1 SPM       0.0815
     19 H5         -4.0597   -0.8298   10.0307 H           1 SPM       0.0815
     20 H6         -6.0326    0.8141   11.5076 H           1 SPM       0.0369
     21 H7         -4.6665    1.3429   10.5172 H           1 SPM       0.0369
     22 H8         -3.9260    0.1875   13.1680 H           1 SPM       0.0816
     23 H9         -4.9596    1.6254   13.2760 H           1 SPM       0.0816
     24 H10        -2.5242    1.5528   11.5455 H           1 SPM       0.2013
     25 H11        -2.4257    1.7749   13.2033 H           1 SPM       0.2013
     26 H12        -2.2214    3.8275   12.4779 H           1 SPM       0.0814
     27 H13        -3.9136    3.7427   13.0057 H           1 SPM       0.0814
     28 H14        -4.6968    3.6101   10.6747 H           1 SPM       0.0319
     29 H15        -3.0505    3.2705   10.1021 H           1 SPM       0.0319
     30 H16        -3.1286    5.5348    9.5561 H           1 SPM       0.0319
     31 H17        -2.4949    5.6891   11.1912 H           1 SPM       0.0319
     32 H18        -4.1901    7.2593   11.3283 H           1 SPM       0.0814
     33 H19        -5.0949    5.8445   11.8653 H           1 SPM       0.0814
     34 H20        -6.4440    6.7787   10.3839 H           1 SPM       0.2013
     35 H21        -5.7535    5.5964    9.4435 H           1 SPM       0.2013
     36 H22        -4.5987    8.3132    9.3312 H           1 SPM       0.0816
     37 H23        -6.1966    8.0473    8.6589 H           1 SPM       0.0816
     38 H24        -4.1353    5.9871    7.8437 H           1 SPM       0.0369
     39 H25        -3.8088    7.6301    7.2977 H           1 SPM       0.0369
     40 H26        -5.0778    6.1963    5.6531 H           1 SPM       0.0815
     41 H27        -5.8626    7.7422    6.0255 H           1 SPM       0.0815
     42 H28        -7.3411    5.8376    5.9616 H           1 SPM       0.1994
     43 H29        -7.3741    6.6229    7.4413 H           1 SPM       0.1994
     44 H30        -6.5636    5.1650    7.2813 H           1 SPM       0.1994
@<TRIPOS>BOND
     1     1     2   1
     2     2     3   1
     3     3     4   1
     4     4     5   1
     5     5     6   1
     6     6     7   1
     7     7     8   1
     8     8     9   1
     9     9    10   1
    10    10    11   1
    11    11    12   1
    12    12    13   1
    13    13    14   1
    14     1    15   1
    15     1    16   1
    16     1    17   1
    17     2    18   1
    18     2    19   1
    19     3    20   1
    20     3    21   1
    21     4    22   1
    22     4    23   1
    23     5    24   1
    24     5    25   1
    25     6    26   1
    26     6    27   1
    27     7    28   1
    28     7    29   1
    29     8    30   1
    30     8    31   1
    31     9    32   1
    32     9    33   1
    33    10    34   1
    34    10    35   1
    35    11    36   1
    36    11    37   1
    37    12    38   1
    38    12    39   1
    39    13    40   1
    40    13    41   1
    41    14    42   1
    42    14    43   1
    43    14    44   1
@<TRIPOS>SUBSTRUCTURE
     1  SPM      2

