@<TRIPOS>MOLECULE
3kwa_ligand_022
    44    43
SMALL
GAST_HUCK
****
This file was generated by PARSER (from files_GN.cpp)

@<TRIPOS>ATOM
      1 N1         -4.0562    1.8077   13.3025 N.4         1 SPM       0.2187
      2 C2         -3.7688    1.8874   11.8657 C.3         1 SPM      -0.0305
      3 C3         -2.8288    3.0533   11.4928 C.3         1 SPM       0.0275
      4 C4         -1.5228    3.1190   12.3308 C.3         1 SPM      -0.0288
      5 N5         -0.4433    3.9913   11.8085 N.4         1 SPM       0.2271
      6 C6         -0.8071    5.3710   11.3808 C.3         1 SPM      -0.0335
      7 C7         -1.0548    5.4643    9.8421 C.3         1 SPM      -0.0078
      8 C8         -2.0447    6.5810    9.4041 C.3         1 SPM      -0.0078
      9 C9         -3.5524    6.2049    9.4861 C.3         1 SPM      -0.0335
     10 N10        -4.0328    5.1878    8.5144 N.4         1 SPM       0.2271
     11 C11        -4.1656    5.5756    7.0882 C.3         1 SPM      -0.0288
     12 C12        -4.8190    6.9493    6.7725 C.3         1 SPM       0.0275
     13 C13        -6.1965    7.2211    7.4348 C.3         1 SPM      -0.0305
     14 N14        -7.1911    6.1757    7.1705 N.4         1 SPM       0.2187
     15 H1         -4.7506    1.0785   13.4707 H           1 SPM       0.1994
     16 H2         -4.4234    2.7029   13.6308 H           1 SPM       0.1994
     17 H3         -3.2029    1.5838   13.8185 H           1 SPM       0.1994
     18 H4         -4.7204    2.0177   11.3425 H           1 SPM       0.0815
     19 H5         -3.3309    0.9400   11.5412 H           1 SPM       0.0815
     20 H6         -3.3831    3.9855   11.6248 H           1 SPM       0.0369
     21 H7         -2.5806    2.9581   10.4356 H           1 SPM       0.0369
     22 H8         -1.1045    2.1135   12.4042 H           1 SPM       0.0816
     23 H9         -1.7737    3.4495   13.3386 H           1 SPM       0.0816
     24 H10         0.0035    3.5154   11.0233 H           1 SPM       0.2013
     25 H11         0.2499    4.0710   12.5613 H           1 SPM       0.2013
     26 H12         0.0200    6.0337   11.6384 H           1 SPM       0.0814
     27 H13        -1.6682    5.7338   11.9417 H           1 SPM       0.0814
     28 H14        -1.4177    4.5123    9.4559 H           1 SPM       0.0319
     29 H15        -0.0885    5.6545    9.3634 H           1 SPM       0.0319
     30 H16        -1.8112    6.8717    8.3780 H           1 SPM       0.0319
     31 H17        -1.8734    7.4702   10.0165 H           1 SPM       0.0319
     32 H18        -4.1427    7.1140    9.3801 H           1 SPM       0.0814
     33 H19        -3.7621    5.8167   10.4813 H           1 SPM       0.0814
     34 H20        -4.9509    4.8471    8.8231 H           1 SPM       0.2013
     35 H21        -3.3894    4.3955    8.5565 H           1 SPM       0.2013
     36 H22        -4.7664    4.8022    6.6069 H           1 SPM       0.0816
     37 H23        -3.1804    5.5433    6.6223 H           1 SPM       0.0816
     38 H24        -4.9401    7.0288    5.6928 H           1 SPM       0.0369
     39 H25        -4.1338    7.7467    7.0775 H           1 SPM       0.0369
     40 H26        -6.5977    8.1598    7.0387 H           1 SPM       0.0815
     41 H27        -6.0910    7.3315    8.5119 H           1 SPM       0.0815
     42 H28        -8.0710    6.4287    7.6246 H           1 SPM       0.1994
     43 H29        -6.8648    5.2829    7.5347 H           1 SPM       0.1994
     44 H30        -7.3443    6.0957    6.1664 H           1 SPM       0.1994
@<TRIPOS>BOND
     1     1     2   1
     2     2     3   1
     3     3     4   1
     4     4     5   1
     5     5     6   1
     6     6     7   1
     7     7     8   1
     8     8     9   1
     9     9    10   1
    10    10    11   1
    11    11    12   1
    12    12    13   1
    13    13    14   1
    14     1    15   1
    15     1    16   1
    16     1    17   1
    17     2    18   1
    18     2    19   1
    19     3    20   1
    20     3    21   1
    21     4    22   1
    22     4    23   1
    23     5    24   1
    24     5    25   1
    25     6    26   1
    26     6    27   1
    27     7    28   1
    28     7    29   1
    29     8    30   1
    30     8    31   1
    31     9    32   1
    32     9    33   1
    33    10    34   1
    34    10    35   1
    35    11    36   1
    36    11    37   1
    37    12    38   1
    38    12    39   1
    39    13    40   1
    40    13    41   1
    41    14    42   1
    42    14    43   1
    43    14    44   1
@<TRIPOS>SUBSTRUCTURE
     1  SPM      2

