@<TRIPOS>MOLECULE
3kwa_ligand_011
    44    43
SMALL
GAST_HUCK
****
This file was generated by PARSER (from files_GN.cpp)

@<TRIPOS>ATOM
      1 N1         -3.4445    1.0683   12.4248 N.4         1 SPM       0.2187
      2 C2         -4.6305    1.9389   12.3920 C.3         1 SPM      -0.0305
      3 C3         -5.1760    2.2392   13.8125 C.3         1 SPM       0.0275
      4 C4         -4.4764    3.3397   14.6784 C.3         1 SPM      -0.0288
      5 N5         -3.1277    3.8635   14.3261 N.4         1 SPM       0.2271
      6 C6         -2.9020    4.6796   13.1013 C.3         1 SPM      -0.0335
      7 C7         -4.0971    5.5430   12.6078 C.3         1 SPM      -0.0078
      8 C8         -3.8674    6.1728   11.2053 C.3         1 SPM      -0.0078
      9 C9         -5.1161    6.9212   10.6357 C.3         1 SPM      -0.0335
     10 N10        -5.5063    6.3955    9.3050 N.4         1 SPM       0.2271
     11 C11        -6.5492    7.1477    8.5540 C.3         1 SPM      -0.0288
     12 C12        -6.0774    7.5993    7.1436 C.3         1 SPM       0.0275
     13 C13        -5.3840    6.5075    6.2891 C.3         1 SPM      -0.0305
     14 N14        -6.1776    5.2793    6.1825 N.4         1 SPM       0.2187
     15 H1         -2.9589    1.1200   11.5236 H           1 SPM       0.1994
     16 H2         -3.7349    0.0985   12.5913 H           1 SPM       0.1994
     17 H3         -2.8089    1.3545   13.1726 H           1 SPM       0.1994
     18 H4         -5.4014    1.4081   11.8216 H           1 SPM       0.0815
     19 H5         -4.3956    2.8716   11.8718 H           1 SPM       0.0815
     20 H6         -5.2051    1.2964   14.3738 H           1 SPM       0.0369
     21 H7         -6.2178    2.5560   13.6911 H           1 SPM       0.0369
     22 H8         -4.3655    2.9190   15.6868 H           1 SPM       0.0816
     23 H9         -5.1520    4.1918   14.7931 H           1 SPM       0.0816
     24 H10        -2.4790    3.0730   14.3103 H           1 SPM       0.2013
     25 H11        -2.8503    4.4606   15.1109 H           1 SPM       0.2013
     26 H12        -2.5741    4.0194   12.2961 H           1 SPM       0.0814
     27 H13        -2.0662    5.3507   13.3218 H           1 SPM       0.0814
     28 H14        -4.2862    6.3468   13.3278 H           1 SPM       0.0319
     29 H15        -4.9816    4.8993   12.5561 H           1 SPM       0.0319
     30 H16        -3.5713    5.3842   10.5081 H           1 SPM       0.0319
     31 H17        -3.0333    6.8761   11.2752 H           1 SPM       0.0319
     32 H18        -4.8773    7.9839   10.5209 H           1 SPM       0.0814
     33 H19        -5.9679    6.8421   11.3209 H           1 SPM       0.0814
     34 H20        -5.8394    5.4310    9.4050 H           1 SPM       0.2013
     35 H21        -4.6554    6.3715    8.7424 H           1 SPM       0.2013
     36 H22        -6.8848    8.0337    9.1009 H           1 SPM       0.0816
     37 H23        -7.4204    6.4961    8.4445 H           1 SPM       0.0816
     38 H24        -5.3799    8.4314    7.2645 H           1 SPM       0.0369
     39 H25        -6.9448    7.9734    6.5952 H           1 SPM       0.0369
     40 H26        -4.4101    6.2555    6.7153 H           1 SPM       0.0815
     41 H27        -5.2180    6.8928    5.2803 H           1 SPM       0.0815
     42 H28        -5.6385    4.5621    5.6928 H           1 SPM       0.1994
     43 H29        -7.0286    5.4796    5.6553 H           1 SPM       0.1994
     44 H30        -6.4193    4.9378    7.1142 H           1 SPM       0.1994
@<TRIPOS>BOND
     1     1     2   1
     2     2     3   1
     3     3     4   1
     4     4     5   1
     5     5     6   1
     6     6     7   1
     7     7     8   1
     8     8     9   1
     9     9    10   1
    10    10    11   1
    11    11    12   1
    12    12    13   1
    13    13    14   1
    14     1    15   1
    15     1    16   1
    16     1    17   1
    17     2    18   1
    18     2    19   1
    19     3    20   1
    20     3    21   1
    21     4    22   1
    22     4    23   1
    23     5    24   1
    24     5    25   1
    25     6    26   1
    26     6    27   1
    27     7    28   1
    28     7    29   1
    29     8    30   1
    30     8    31   1
    31     9    32   1
    32     9    33   1
    33    10    34   1
    34    10    35   1
    35    11    36   1
    36    11    37   1
    37    12    38   1
    38    12    39   1
    39    13    40   1
    40    13    41   1
    41    14    42   1
    42    14    43   1
    43    14    44   1
@<TRIPOS>SUBSTRUCTURE
     1  SPM      2

