@<TRIPOS>MOLECULE
3kwa_ligand_018
    44    43
SMALL
GAST_HUCK
****
This file was generated by PARSER (from files_GN.cpp)

@<TRIPOS>ATOM
      1 N1         -4.3693   -4.4652   11.0822 N.4         1 SPM       0.2187
      2 C2         -4.9025   -3.1365   11.4183 C.3         1 SPM      -0.0305
      3 C3         -3.8174   -2.0232   11.4647 C.3         1 SPM       0.0275
      4 C4         -4.0074   -1.0112   12.6298 C.3         1 SPM      -0.0288
      5 N5         -3.6077    0.3783   12.2901 N.4         1 SPM       0.2271
      6 C6         -4.6570    1.2919   11.7528 C.3         1 SPM      -0.0335
      7 C7         -4.5104    2.7278   12.3396 C.3         1 SPM      -0.0078
      8 C8         -4.4027    3.8797   11.3010 C.3         1 SPM      -0.0078
      9 C9         -3.0875    4.0653   10.4745 C.3         1 SPM      -0.0335
     10 N10        -1.8224    3.4443   10.9368 N.4         1 SPM       0.2271
     11 C11        -1.2952    3.7863   12.2759 C.3         1 SPM      -0.0288
     12 C12        -0.6344    5.1856   12.4102 C.3         1 SPM       0.0275
     13 C13         0.6125    5.4382   11.5207 C.3         1 SPM      -0.0305
     14 N14         1.5148    4.2828   11.4649 N.4         1 SPM       0.2187
     15 H1         -5.1642   -5.0745   10.8699 H           1 SPM       0.1994
     16 H2         -3.8562   -4.8507   11.8832 H           1 SPM       0.1994
     17 H3         -3.7465   -4.4140   10.2692 H           1 SPM       0.1994
     18 H4         -5.4145   -3.2355   12.3733 H           1 SPM       0.0815
     19 H5         -5.6628   -2.8709   10.6799 H           1 SPM       0.0815
     20 H6         -3.8358   -1.4925   10.5115 H           1 SPM       0.0369
     21 H7         -2.8263   -2.4792   11.5555 H           1 SPM       0.0369
     22 H8         -3.3869   -1.3457   13.4617 H           1 SPM       0.0816
     23 H9         -5.0343   -1.0183   12.9939 H           1 SPM       0.0816
     24 H10        -2.8537    0.3407   11.6017 H           1 SPM       0.2013
     25 H11        -3.2183    0.7948   13.1424 H           1 SPM       0.2013
     26 H12        -5.6646    0.9266   11.9897 H           1 SPM       0.0814
     27 H13        -4.5758    1.2925   10.6619 H           1 SPM       0.0814
     28 H14        -3.6249    2.7867   12.9997 H           1 SPM       0.0319
     29 H15        -5.3870    2.9356   12.9721 H           1 SPM       0.0319
     30 H16        -4.5847    4.8072   11.8454 H           1 SPM       0.0319
     31 H17        -5.2281    3.7767   10.5902 H           1 SPM       0.0319
     32 H18        -2.9107    5.1334   10.3274 H           1 SPM       0.0814
     33 H19        -3.2575    3.6532    9.4773 H           1 SPM       0.0814
     34 H20        -1.0942    3.6861   10.2572 H           1 SPM       0.2013
     35 H21        -1.9386    2.4339   10.8747 H           1 SPM       0.2013
     36 H22        -0.5492    3.0243   12.5260 H           1 SPM       0.0816
     37 H23        -2.1036    3.7036   13.0151 H           1 SPM       0.0816
     38 H24        -0.3349    5.2949   13.4552 H           1 SPM       0.0369
     39 H25        -1.3755    5.9667   12.2149 H           1 SPM       0.0369
     40 H26         1.1699    6.2852   11.9284 H           1 SPM       0.0815
     41 H27         0.3067    5.6927   10.5048 H           1 SPM       0.0815
     42 H28         2.4276    4.5861   11.1171 H           1 SPM       0.1994
     43 H29         1.1239    3.5790   10.8353 H           1 SPM       0.1994
     44 H30         1.6116    3.8885   12.4019 H           1 SPM       0.1994
@<TRIPOS>BOND
     1     1     2   1
     2     2     3   1
     3     3     4   1
     4     4     5   1
     5     5     6   1
     6     6     7   1
     7     7     8   1
     8     8     9   1
     9     9    10   1
    10    10    11   1
    11    11    12   1
    12    12    13   1
    13    13    14   1
    14     1    15   1
    15     1    16   1
    16     1    17   1
    17     2    18   1
    18     2    19   1
    19     3    20   1
    20     3    21   1
    21     4    22   1
    22     4    23   1
    23     5    24   1
    24     5    25   1
    25     6    26   1
    26     6    27   1
    27     7    28   1
    28     7    29   1
    29     8    30   1
    30     8    31   1
    31     9    32   1
    32     9    33   1
    33    10    34   1
    34    10    35   1
    35    11    36   1
    36    11    37   1
    37    12    38   1
    38    12    39   1
    39    13    40   1
    40    13    41   1
    41    14    42   1
    42    14    43   1
    43    14    44   1
@<TRIPOS>SUBSTRUCTURE
     1  SPM      2

