@<TRIPOS>MOLECULE
3kwa_ligand_043
    44    43
SMALL
GAST_HUCK
****
This file was generated by PARSER (from files_GN.cpp)

@<TRIPOS>ATOM
      1 N1         -1.8028    7.9511    6.2268 N.4         1 SPM       0.2187
      2 C2         -1.5882    6.6501    6.8729 C.3         1 SPM      -0.0305
      3 C3         -2.6773    5.6195    6.4702 C.3         1 SPM       0.0275
      4 C4         -4.0232    5.6862    7.2506 C.3         1 SPM      -0.0288
      5 N5         -3.9804    5.0613    8.5950 N.4         1 SPM       0.2271
      6 C6         -3.6335    5.9090    9.7720 C.3         1 SPM      -0.0335
      7 C7         -2.2866    5.4703   10.4110 C.3         1 SPM      -0.0078
      8 C8         -2.3111    4.2336   11.3546 C.3         1 SPM      -0.0078
      9 C9         -3.5630    3.3274   11.2870 C.3         1 SPM      -0.0335
     10 N10        -3.3043    2.0305   11.9514 N.4         1 SPM       0.2271
     11 C11        -4.4812    1.3027   12.4651 C.3         1 SPM      -0.0288
     12 C12        -4.9362    1.8037   13.8796 C.3         1 SPM       0.0275
     13 C13        -5.0175    0.6931   14.9576 C.3         1 SPM      -0.0305
     14 N14        -3.9152    0.7986   15.9218 N.4         1 SPM       0.2187
     15 H1         -1.0658    8.6001    6.5242 H           1 SPM       0.1994
     16 H2         -2.7197    8.3254    6.4963 H           1 SPM       0.1994
     17 H3         -1.7631    7.8373    5.2060 H           1 SPM       0.1994
     18 H4         -1.5675    6.7780    7.9586 H           1 SPM       0.0815
     19 H5         -0.6089    6.2739    6.5563 H           1 SPM       0.0815
     20 H6         -2.2598    4.6134    6.5851 H           1 SPM       0.0369
     21 H7         -2.8948    5.7651    5.4045 H           1 SPM       0.0369
     22 H8         -4.7496    5.1136    6.6728 H           1 SPM       0.0816
     23 H9         -4.3902    6.7134    7.3016 H           1 SPM       0.0816
     24 H10        -3.3191    4.2800    8.5520 H           1 SPM       0.2013
     25 H11        -4.9085    4.6600    8.7562 H           1 SPM       0.2013
     26 H12        -4.4293    5.8302   10.5166 H           1 SPM       0.0814
     27 H13        -3.5572    6.9685    9.4925 H           1 SPM       0.0814
     28 H14        -1.9039    6.3238   10.9992 H           1 SPM       0.0319
     29 H15        -1.5526    5.2906    9.6131 H           1 SPM       0.0319
     30 H16        -2.2097    4.5879   12.3858 H           1 SPM       0.0319
     31 H17        -1.4189    3.6365   11.1308 H           1 SPM       0.0319
     32 H18        -3.8169    3.1187   10.2453 H           1 SPM       0.0814
     33 H19        -4.4051    3.8491   11.7492 H           1 SPM       0.0814
     34 H20        -2.6526    2.1531   12.7341 H           1 SPM       0.2013
     35 H21        -2.8520    1.4364   11.2537 H           1 SPM       0.2013
     36 H22        -4.1894    0.2464   12.5162 H           1 SPM       0.0816
     37 H23        -5.3124    1.3679   11.7522 H           1 SPM       0.0816
     38 H24        -5.9290    2.2626   13.7740 H           1 SPM       0.0369
     39 H25        -4.2664    2.5974   14.2364 H           1 SPM       0.0369
     40 H26        -4.9843   -0.2972   14.4867 H           1 SPM       0.0815
     41 H27        -5.9657    0.7776   15.5023 H           1 SPM       0.0815
     42 H28        -3.7930   -0.1035   16.3943 H           1 SPM       0.1994
     43 H29        -4.1395    1.5248   16.6058 H           1 SPM       0.1994
     44 H30        -3.0546    1.0540   15.4303 H           1 SPM       0.1994
@<TRIPOS>BOND
     1     1     2   1
     2     2     3   1
     3     3     4   1
     4     4     5   1
     5     5     6   1
     6     6     7   1
     7     7     8   1
     8     8     9   1
     9     9    10   1
    10    10    11   1
    11    11    12   1
    12    12    13   1
    13    13    14   1
    14     1    15   1
    15     1    16   1
    16     1    17   1
    17     2    18   1
    18     2    19   1
    19     3    20   1
    20     3    21   1
    21     4    22   1
    22     4    23   1
    23     5    24   1
    24     5    25   1
    25     6    26   1
    26     6    27   1
    27     7    28   1
    28     7    29   1
    29     8    30   1
    30     8    31   1
    31     9    32   1
    32     9    33   1
    33    10    34   1
    34    10    35   1
    35    11    36   1
    36    11    37   1
    37    12    38   1
    38    12    39   1
    39    13    40   1
    40    13    41   1
    41    14    42   1
    42    14    43   1
    43    14    44   1
@<TRIPOS>SUBSTRUCTURE
     1  SPM      2

