@<TRIPOS>MOLECULE
3kwa_ligand_056
    44    43
SMALL
GAST_HUCK
****
This file was generated by PARSER (from files_GN.cpp)

@<TRIPOS>ATOM
      1 N1         -2.3642    5.8225   14.7870 N.4         1 SPM       0.2187
      2 C2         -1.2746    5.0576   14.1586 C.3         1 SPM      -0.0305
      3 C3         -1.8204    4.0647   13.1062 C.3         1 SPM       0.0275
      4 C4         -0.7058    3.3571   12.2749 C.3         1 SPM      -0.0288
      5 N5         -0.8127    3.6139   10.8184 N.4         1 SPM       0.2271
      6 C6         -0.7621    5.0335   10.3964 C.3         1 SPM      -0.0335
      7 C7         -1.2645    5.2049    8.9400 C.3         1 SPM      -0.0078
      8 C8         -2.8105    5.0429    8.8198 C.3         1 SPM      -0.0078
      9 C9         -3.3973    5.6410    7.5183 C.3         1 SPM      -0.0335
     10 N10        -4.7772    6.1407    7.7436 N.4         1 SPM       0.2271
     11 C11        -5.4079    6.7977    6.5778 C.3         1 SPM      -0.0288
     12 C12        -6.5101    7.8040    6.9955 C.3         1 SPM       0.0275
     13 C13        -7.7321    7.2130    7.7397 C.3         1 SPM      -0.0305
     14 N14        -8.0204    5.8371    7.3296 N.4         1 SPM       0.2187
     15 H1         -1.9697    6.4653   15.4813 H           1 SPM       0.1994
     16 H2         -3.0165    5.1843   15.2479 H           1 SPM       0.1994
     17 H3         -2.8635    6.3631   14.0705 H           1 SPM       0.1994
     18 H4         -0.7456    4.5109   14.9474 H           1 SPM       0.0815
     19 H5         -0.5744    5.7662   13.6971 H           1 SPM       0.0815
     20 H6         -2.4903    4.6033   12.4331 H           1 SPM       0.0369
     21 H7         -2.4188    3.3091   13.6217 H           1 SPM       0.0369
     22 H8         -0.7991    2.2771   12.3983 H           1 SPM       0.0816
     23 H9          0.3000    3.6328   12.6104 H           1 SPM       0.0816
     24 H10        -1.6886    3.1941   10.4937 H           1 SPM       0.2013
     25 H11        -0.0347    3.1250   10.3603 H           1 SPM       0.2013
     26 H12         0.2771    5.3681   10.4617 H           1 SPM       0.0814
     27 H13        -1.3719    5.6561   11.0617 H           1 SPM       0.0814
     28 H14        -0.7589    4.4849    8.2880 H           1 SPM       0.0319
     29 H15        -0.9898    6.2134    8.6166 H           1 SPM       0.0319
     30 H16        -3.2687    5.5497    9.6771 H           1 SPM       0.0319
     31 H17        -3.0777    3.9811    8.8716 H           1 SPM       0.0319
     32 H18        -3.3942    4.8776    6.7329 H           1 SPM       0.0814
     33 H19        -2.7597    6.4720    7.1963 H           1 SPM       0.0814
     34 H20        -4.7365    6.8118    8.5147 H           1 SPM       0.2013
     35 H21        -5.3621    5.3519    8.0364 H           1 SPM       0.2013
     36 H22        -5.8351    6.0293    5.9291 H           1 SPM       0.0816
     37 H23        -4.6607    7.3471    5.9994 H           1 SPM       0.0816
     38 H24        -6.8621    8.3091    6.0927 H           1 SPM       0.0369
     39 H25        -6.0533    8.5665    7.6361 H           1 SPM       0.0369
     40 H26        -8.6082    7.8378    7.5385 H           1 SPM       0.0815
     41 H27        -7.5525    7.2214    8.8175 H           1 SPM       0.0815
     42 H28        -8.9661    5.5789    7.6238 H           1 SPM       0.1994
     43 H29        -7.3483    5.2190    7.7745 H           1 SPM       0.1994
     44 H30        -7.9335    5.7572    6.3194 H           1 SPM       0.1994
@<TRIPOS>BOND
     1     1     2   1
     2     2     3   1
     3     3     4   1
     4     4     5   1
     5     5     6   1
     6     6     7   1
     7     7     8   1
     8     8     9   1
     9     9    10   1
    10    10    11   1
    11    11    12   1
    12    12    13   1
    13    13    14   1
    14     1    15   1
    15     1    16   1
    16     1    17   1
    17     2    18   1
    18     2    19   1
    19     3    20   1
    20     3    21   1
    21     4    22   1
    22     4    23   1
    23     5    24   1
    24     5    25   1
    25     6    26   1
    26     6    27   1
    27     7    28   1
    28     7    29   1
    29     8    30   1
    30     8    31   1
    31     9    32   1
    32     9    33   1
    33    10    34   1
    34    10    35   1
    35    11    36   1
    36    11    37   1
    37    12    38   1
    38    12    39   1
    39    13    40   1
    40    13    41   1
    41    14    42   1
    42    14    43   1
    43    14    44   1
@<TRIPOS>SUBSTRUCTURE
     1  SPM      2

